                                                                
version 2
run envmod-0-20220330-14:13:29-47421
attr configname envmod
attr datetime 20220330-14:13:29
attr experiment envmod
attr inifile omnetpp.ini
attr iterationvars ""
attr iterationvarsf ""
attr measurement ""
attr network artery.envmod.World
attr processid 47421
attr repetition 0
attr replication #0
attr resultdir results
attr runnumber 0
attr seedset 0
param **.identityRegistryModule "\"idRegistry\""
param *.traci.mapper.vehicleType "\"artery.envmod.Car\""
param *.traci.mapper.PersonType "\"artery.envmod.Person\""
param *.environmentModel.drawObstacles true
param *.environmentModel.drawVehicles true
param *.environmentModel.drawPersons true
param *.environmentModel.obstacleTypes "\"building shop\""
param *.environmentModel.traciModule "\"traci\""
param *.environmentModel.nodeMobilityModule "\".mobility\""
param *.node[*].middleware.services "xmldoc(\"services-envmod.xml\")"
param *.node[*].environmentModel.sensors "xmldoc(\"sensors.xml\")"
param *.node[*].environmentModel.*.drawSensorCone true
param *.node[*].environmentModel.*.drawLinesOfSight true
param *.node[*].environmentModel.*.drawDetectedObjects true
param *.node[*].environmentModel.*.drawBlockingObstacles true
param *.node[*].environmentModel.*.drawDetectedPersons true
param *.node[*].environmentModel.*.doLineOfSightCheck true
param *.node[*].environmentModel.FrontLongRangeRadar.fovRange 150m
param *.node[*].environmentModel.FrontLongRangeRadar.fovAngle 10
param *.node[*].environmentModel.FrontShortRangeRadar.fovRange 65m
param *.node[*].environmentModel.FrontShortRangeRadar.fovAngle 80
param *.node[*].environmentModel.FrontShortRangeRadar.numSegments 4
param *.node[*].environmentModel.RearLongRangeRadar.fovRange 150m
param *.node[*].environmentModel.RearLongRangeRadar.fovAngle 10
param *.node[*].environmentModel.RearShortRangeRadar.fovRange 65m
param *.node[*].environmentModel.RearShortRangeRadar.fovAngle 80
param *.node[*].environmentModel.RearShortRangeRadar.numSegments 4
param *.node[*].environmentModel.SeeThrough.fovRange 10m
param **.vanetza[*].router.disableBeaconing true
param *.node[*].wlan[*].typename "\"VanetNic\""
param *.node[*].wlan[*].radio.channelNumber 180
param *.node[*].wlan[*].radio.carrierFrequency "5.9 GHz"
param *.node[*].wlan[*].radio.transmitter.power "200 mW"
param *.node[*].middleware.updateInterval 0.1s
param *.node[*].middleware.datetime "\"2018-03-19 10:00:00\""
param *.node[*].middleware.services "xmldoc(\"services.xml\")"
param World.traci.ignorePersons false
param *.traci.core.version -1
param *.traci.launcher.typename "\"PosixLauncher\""
param *.traci.launcher.sumocfg "\"roundabout/AudiKreis.sumocfg\""

vector 0 World.node[0].wlan[0].radio radioMode:vector ETV
attr interpolationmode sample-hold
attr source radioModeChanged
attr title "Radio mode, vector"
vector 1 World.node[0].wlan[0].radio radioChannel:vector ETV
attr interpolationmode sample-hold
attr source radioChannelChanged
attr title "Radio channel, vector"
vector 2 World.node[0].wlan[0].radio receptionState:vector ETV
attr interpolationmode sample-hold
attr source receptionStateChanged
attr title "Radio reception state, vector"
vector 3 World.node[0].wlan[0].mac.dcf.channelAccess.contention state:vector ETV
attr interpolationmode none
attr source stateChanged
attr title "contention state, vector"
vector 4 World.node[0].wlan[0].mac.hcf.edca.edcaf[0].contention state:vector ETV
attr interpolationmode none
attr source stateChanged
attr title "contention state, vector"
vector 5 World.node[0].wlan[0].mac.hcf.edca.edcaf[1].contention state:vector ETV
attr interpolationmode none
attr source stateChanged
attr title "contention state, vector"
vector 6 World.node[0].wlan[0].mac.hcf.edca.edcaf[2].contention state:vector ETV
attr interpolationmode none
attr source stateChanged
attr title "contention state, vector"
vector 7 World.node[0].wlan[0].mac.hcf.edca.edcaf[3].contention state:vector ETV
attr interpolationmode none
attr source stateChanged
attr title "contention state, vector"
vector 8 World.node[1].wlan[0].radio radioMode:vector ETV
attr interpolationmode sample-hold
attr source radioModeChanged
attr title "Radio mode, vector"
vector 9 World.node[1].wlan[0].radio radioChannel:vector ETV
attr interpolationmode sample-hold
attr source radioChannelChanged
attr title "Radio channel, vector"
vector 10 World.node[1].wlan[0].radio receptionState:vector ETV
attr interpolationmode sample-hold
attr source receptionStateChanged
attr title "Radio reception state, vector"
vector 11 World.node[1].wlan[0].mac.dcf.channelAccess.contention state:vector ETV
attr interpolationmode none
attr source stateChanged
attr title "contention state, vector"
vector 12 World.node[1].wlan[0].mac.hcf.edca.edcaf[0].contention state:vector ETV
attr interpolationmode none
attr source stateChanged
attr title "contention state, vector"
vector 13 World.node[1].wlan[0].mac.hcf.edca.edcaf[1].contention state:vector ETV
attr interpolationmode none
attr source stateChanged
attr title "contention state, vector"
vector 14 World.node[1].wlan[0].mac.hcf.edca.edcaf[2].contention state:vector ETV
attr interpolationmode none
attr source stateChanged
attr title "contention state, vector"
vector 15 World.node[1].wlan[0].mac.hcf.edca.edcaf[3].contention state:vector ETV
attr interpolationmode none
attr source stateChanged
attr title "contention state, vector"
vector 16 World.node[2].wlan[0].radio radioMode:vector ETV
attr interpolationmode sample-hold
attr source radioModeChanged
attr title "Radio mode, vector"
vector 17 World.node[2].wlan[0].radio radioChannel:vector ETV
attr interpolationmode sample-hold
attr source radioChannelChanged
attr title "Radio channel, vector"
vector 18 World.node[2].wlan[0].radio receptionState:vector ETV
attr interpolationmode sample-hold
attr source receptionStateChanged
attr title "Radio reception state, vector"
vector 19 World.node[2].wlan[0].mac.dcf.channelAccess.contention state:vector ETV
attr interpolationmode none
attr source stateChanged
attr title "contention state, vector"
vector 20 World.node[2].wlan[0].mac.hcf.edca.edcaf[0].contention state:vector ETV
attr interpolationmode none
attr source stateChanged
attr title "contention state, vector"
vector 21 World.node[2].wlan[0].mac.hcf.edca.edcaf[1].contention state:vector ETV
attr interpolationmode none
attr source stateChanged
attr title "contention state, vector"
vector 22 World.node[2].wlan[0].mac.hcf.edca.edcaf[2].contention state:vector ETV
attr interpolationmode none
attr source stateChanged
attr title "contention state, vector"
vector 23 World.node[2].wlan[0].mac.hcf.edca.edcaf[3].contention state:vector ETV
attr interpolationmode none
attr source stateChanged
attr title "contention state, vector"
vector 24 World.node[3].wlan[0].radio radioMode:vector ETV
attr interpolationmode sample-hold
attr source radioModeChanged
attr title "Radio mode, vector"
vector 25 World.node[3].wlan[0].radio radioChannel:vector ETV
attr interpolationmode sample-hold
attr source radioChannelChanged
attr title "Radio channel, vector"
vector 26 World.node[3].wlan[0].radio receptionState:vector ETV
attr interpolationmode sample-hold
attr source receptionStateChanged
attr title "Radio reception state, vector"
vector 27 World.node[3].wlan[0].mac.dcf.channelAccess.contention state:vector ETV
attr interpolationmode none
attr source stateChanged
attr title "contention state, vector"
vector 28 World.node[3].wlan[0].mac.hcf.edca.edcaf[0].contention state:vector ETV
attr interpolationmode none
attr source stateChanged
attr title "contention state, vector"
vector 29 World.node[3].wlan[0].mac.hcf.edca.edcaf[1].contention state:vector ETV
attr interpolationmode none
attr source stateChanged
attr title "contention state, vector"
vector 30 World.node[3].wlan[0].mac.hcf.edca.edcaf[2].contention state:vector ETV
attr interpolationmode none
attr source stateChanged
attr title "contention state, vector"
vector 31 World.node[3].wlan[0].mac.hcf.edca.edcaf[3].contention state:vector ETV
attr interpolationmode none
attr source stateChanged
attr title "contention state, vector"
vector 32 World.node[4].wlan[0].radio radioMode:vector ETV
attr interpolationmode sample-hold
attr source radioModeChanged
attr title "Radio mode, vector"
vector 33 World.node[4].wlan[0].radio radioChannel:vector ETV
attr interpolationmode sample-hold
attr source radioChannelChanged
attr title "Radio channel, vector"
vector 34 World.node[4].wlan[0].radio receptionState:vector ETV
attr interpolationmode sample-hold
attr source receptionStateChanged
attr title "Radio reception state, vector"
vector 35 World.node[4].wlan[0].mac.dcf.channelAccess.contention state:vector ETV
attr interpolationmode none
attr source stateChanged
attr title "contention state, vector"
vector 36 World.node[4].wlan[0].mac.hcf.edca.edcaf[0].contention state:vector ETV
attr interpolationmode none
attr source stateChanged
attr title "contention state, vector"
vector 37 World.node[4].wlan[0].mac.hcf.edca.edcaf[1].contention state:vector ETV
attr interpolationmode none
attr source stateChanged
attr title "contention state, vector"
vector 38 World.node[4].wlan[0].mac.hcf.edca.edcaf[2].contention state:vector ETV
attr interpolationmode none
attr source stateChanged
attr title "contention state, vector"
vector 39 World.node[4].wlan[0].mac.hcf.edca.edcaf[3].contention state:vector ETV
attr interpolationmode none
attr source stateChanged
attr title "contention state, vector"
vector 40 World.node[5].wlan[0].radio radioMode:vector ETV
attr interpolationmode sample-hold
attr source radioModeChanged
attr title "Radio mode, vector"
vector 41 World.node[5].wlan[0].radio radioChannel:vector ETV
attr interpolationmode sample-hold
attr source radioChannelChanged
attr title "Radio channel, vector"
vector 42 World.node[5].wlan[0].radio receptionState:vector ETV
attr interpolationmode sample-hold
attr source receptionStateChanged
attr title "Radio reception state, vector"
vector 43 World.node[5].wlan[0].mac.dcf.channelAccess.contention state:vector ETV
attr interpolationmode none
attr source stateChanged
attr title "contention state, vector"
vector 44 World.node[5].wlan[0].mac.hcf.edca.edcaf[0].contention state:vector ETV
attr interpolationmode none
attr source stateChanged
attr title "contention state, vector"
vector 45 World.node[5].wlan[0].mac.hcf.edca.edcaf[1].contention state:vector ETV
attr interpolationmode none
attr source stateChanged
attr title "contention state, vector"
vector 46 World.node[5].wlan[0].mac.hcf.edca.edcaf[2].contention state:vector ETV
attr interpolationmode none
attr source stateChanged
attr title "contention state, vector"
vector 47 World.node[5].wlan[0].mac.hcf.edca.edcaf[3].contention state:vector ETV
attr interpolationmode none
attr source stateChanged
attr title "contention state, vector"
vector 48 World.node[1].wlan[0].mac rcvdPkFromHL:vector(packetBytes) ETV
attr interpolationmode none
attr source packetReceivedFromUpper
attr title "packets received from higher layer, vector(packetBytes)"
vector 49 World.node[1].wlan[0].mac sentDownPk:vector(packetBytes) ETV
attr interpolationmode none
attr source packetSentToLower
attr title "packets sent to lower layer, vector(packetBytes)"
vector 50 World.node[1].wlan[0].radio transmissionState:vector ETV
attr interpolationmode sample-hold
attr source transmissionStateChanged
attr title "Radio transmission state, vector"
vector 51 World.node[0].wlan[0].mac rcvdPkFromLL:vector(packetBytes) ETV
attr interpolationmode none
attr source packetReceivedFromLower
attr title "packets received from lower layer, vector(packetBytes)"
vector 52 World.node[0].wlan[0].mac passedUpPk:vector(packetBytes) ETV
attr interpolationmode none
attr source packetSentToUpper
attr title "packets passed to higher layer, vector(packetBytes)"
vector 53 World.node[4].wlan[0].mac rcvdPkFromLL:vector(packetBytes) ETV
attr interpolationmode none
attr source packetReceivedFromLower
attr title "packets received from lower layer, vector(packetBytes)"
vector 54 World.node[4].wlan[0].mac passedUpPk:vector(packetBytes) ETV
attr interpolationmode none
attr source packetSentToUpper
attr title "packets passed to higher layer, vector(packetBytes)"
vector 55 World.node[3].wlan[0].mac rcvdPkFromLL:vector(packetBytes) ETV
attr interpolationmode none
attr source packetReceivedFromLower
attr title "packets received from lower layer, vector(packetBytes)"
vector 56 World.node[3].wlan[0].mac passedUpPk:vector(packetBytes) ETV
attr interpolationmode none
attr source packetSentToUpper
attr title "packets passed to higher layer, vector(packetBytes)"
vector 57 World.node[5].wlan[0].mac rcvdPkFromLL:vector(packetBytes) ETV
attr interpolationmode none
attr source packetReceivedFromLower
attr title "packets received from lower layer, vector(packetBytes)"
vector 58 World.node[5].wlan[0].mac passedUpPk:vector(packetBytes) ETV
attr interpolationmode none
attr source packetSentToUpper
attr title "packets passed to higher layer, vector(packetBytes)"
vector 59 World.node[2].wlan[0].mac rcvdPkFromLL:vector(packetBytes) ETV
attr interpolationmode none
attr source packetReceivedFromLower
attr title "packets received from lower layer, vector(packetBytes)"
vector 60 World.node[2].wlan[0].mac passedUpPk:vector(packetBytes) ETV
attr interpolationmode none
attr source packetSentToUpper
attr title "packets passed to higher layer, vector(packetBytes)"
vector 61 World.node[2].wlan[0].mac rcvdPkFromHL:vector(packetBytes) ETV
attr interpolationmode none
attr source packetReceivedFromUpper
attr title "packets received from higher layer, vector(packetBytes)"
vector 62 World.node[2].wlan[0].mac sentDownPk:vector(packetBytes) ETV
attr interpolationmode none
attr source packetSentToLower
attr title "packets sent to lower layer, vector(packetBytes)"
vector 63 World.node[2].wlan[0].radio transmissionState:vector ETV
attr interpolationmode sample-hold
attr source transmissionStateChanged
attr title "Radio transmission state, vector"
vector 64 World.node[1].wlan[0].mac rcvdPkFromLL:vector(packetBytes) ETV
attr interpolationmode none
attr source packetReceivedFromLower
attr title "packets received from lower layer, vector(packetBytes)"
vector 65 World.node[1].wlan[0].mac passedUpPk:vector(packetBytes) ETV
attr interpolationmode none
attr source packetSentToUpper
attr title "packets passed to higher layer, vector(packetBytes)"
vector 66 World.node[6].wlan[0].radio radioMode:vector ETV
attr interpolationmode sample-hold
attr source radioModeChanged
attr title "Radio mode, vector"
vector 67 World.node[6].wlan[0].radio radioChannel:vector ETV
attr interpolationmode sample-hold
attr source radioChannelChanged
attr title "Radio channel, vector"
vector 68 World.node[6].wlan[0].radio receptionState:vector ETV
attr interpolationmode sample-hold
attr source receptionStateChanged
attr title "Radio reception state, vector"
vector 69 World.node[6].wlan[0].mac.dcf.channelAccess.contention state:vector ETV
attr interpolationmode none
attr source stateChanged
attr title "contention state, vector"
vector 70 World.node[6].wlan[0].mac.hcf.edca.edcaf[0].contention state:vector ETV
attr interpolationmode none
attr source stateChanged
attr title "contention state, vector"
vector 71 World.node[6].wlan[0].mac.hcf.edca.edcaf[1].contention state:vector ETV
attr interpolationmode none
attr source stateChanged
attr title "contention state, vector"
vector 72 World.node[6].wlan[0].mac.hcf.edca.edcaf[2].contention state:vector ETV
attr interpolationmode none
attr source stateChanged
attr title "contention state, vector"
vector 73 World.node[6].wlan[0].mac.hcf.edca.edcaf[3].contention state:vector ETV
attr interpolationmode none
attr source stateChanged
attr title "contention state, vector"
vector 74 World.node[7].wlan[0].radio radioMode:vector ETV
attr interpolationmode sample-hold
attr source radioModeChanged
attr title "Radio mode, vector"
vector 75 World.node[7].wlan[0].radio radioChannel:vector ETV
attr interpolationmode sample-hold
attr source radioChannelChanged
attr title "Radio channel, vector"
vector 76 World.node[7].wlan[0].radio receptionState:vector ETV
attr interpolationmode sample-hold
attr source receptionStateChanged
attr title "Radio reception state, vector"
vector 77 World.node[7].wlan[0].mac.dcf.channelAccess.contention state:vector ETV
attr interpolationmode none
attr source stateChanged
attr title "contention state, vector"
vector 78 World.node[7].wlan[0].mac.hcf.edca.edcaf[0].contention state:vector ETV
attr interpolationmode none
attr source stateChanged
attr title "contention state, vector"
vector 79 World.node[7].wlan[0].mac.hcf.edca.edcaf[1].contention state:vector ETV
attr interpolationmode none
attr source stateChanged
attr title "contention state, vector"
vector 80 World.node[7].wlan[0].mac.hcf.edca.edcaf[2].contention state:vector ETV
attr interpolationmode none
attr source stateChanged
attr title "contention state, vector"
vector 81 World.node[7].wlan[0].mac.hcf.edca.edcaf[3].contention state:vector ETV
attr interpolationmode none
attr source stateChanged
attr title "contention state, vector"
vector 82 World.node[8].wlan[0].radio radioMode:vector ETV
attr interpolationmode sample-hold
attr source radioModeChanged
attr title "Radio mode, vector"
vector 83 World.node[8].wlan[0].radio radioChannel:vector ETV
attr interpolationmode sample-hold
attr source radioChannelChanged
attr title "Radio channel, vector"
vector 84 World.node[8].wlan[0].radio receptionState:vector ETV
attr interpolationmode sample-hold
attr source receptionStateChanged
attr title "Radio reception state, vector"
vector 85 World.node[8].wlan[0].mac.dcf.channelAccess.contention state:vector ETV
attr interpolationmode none
attr source stateChanged
attr title "contention state, vector"
vector 86 World.node[8].wlan[0].mac.hcf.edca.edcaf[0].contention state:vector ETV
attr interpolationmode none
attr source stateChanged
attr title "contention state, vector"
vector 87 World.node[8].wlan[0].mac.hcf.edca.edcaf[1].contention state:vector ETV
attr interpolationmode none
attr source stateChanged
attr title "contention state, vector"
vector 88 World.node[8].wlan[0].mac.hcf.edca.edcaf[2].contention state:vector ETV
attr interpolationmode none
attr source stateChanged
attr title "contention state, vector"
vector 89 World.node[8].wlan[0].mac.hcf.edca.edcaf[3].contention state:vector ETV
attr interpolationmode none
attr source stateChanged
attr title "contention state, vector"
vector 90 World.node[9].wlan[0].radio radioMode:vector ETV
attr interpolationmode sample-hold
attr source radioModeChanged
attr title "Radio mode, vector"
vector 91 World.node[9].wlan[0].radio radioChannel:vector ETV
attr interpolationmode sample-hold
attr source radioChannelChanged
attr title "Radio channel, vector"
vector 92 World.node[9].wlan[0].radio receptionState:vector ETV
attr interpolationmode sample-hold
attr source receptionStateChanged
attr title "Radio reception state, vector"
vector 93 World.node[9].wlan[0].mac.dcf.channelAccess.contention state:vector ETV
attr interpolationmode none
attr source stateChanged
attr title "contention state, vector"
vector 94 World.node[9].wlan[0].mac.hcf.edca.edcaf[0].contention state:vector ETV
attr interpolationmode none
attr source stateChanged
attr title "contention state, vector"
vector 95 World.node[9].wlan[0].mac.hcf.edca.edcaf[1].contention state:vector ETV
attr interpolationmode none
attr source stateChanged
attr title "contention state, vector"
vector 96 World.node[9].wlan[0].mac.hcf.edca.edcaf[2].contention state:vector ETV
attr interpolationmode none
attr source stateChanged
attr title "contention state, vector"
vector 97 World.node[9].wlan[0].mac.hcf.edca.edcaf[3].contention state:vector ETV
attr interpolationmode none
attr source stateChanged
attr title "contention state, vector"
vector 98 World.node[5].wlan[0].mac rcvdPkFromHL:vector(packetBytes) ETV
attr interpolationmode none
attr source packetReceivedFromUpper
attr title "packets received from higher layer, vector(packetBytes)"
vector 99 World.node[5].wlan[0].mac sentDownPk:vector(packetBytes) ETV
attr interpolationmode none
attr source packetSentToLower
attr title "packets sent to lower layer, vector(packetBytes)"
vector 100 World.node[5].wlan[0].radio transmissionState:vector ETV
attr interpolationmode sample-hold
attr source transmissionStateChanged
attr title "Radio transmission state, vector"
vector 101 World.node[7].wlan[0].mac rcvdPkFromLL:vector(packetBytes) ETV
attr interpolationmode none
attr source packetReceivedFromLower
attr title "packets received from lower layer, vector(packetBytes)"
vector 102 World.node[7].wlan[0].mac passedUpPk:vector(packetBytes) ETV
attr interpolationmode none
attr source packetSentToUpper
attr title "packets passed to higher layer, vector(packetBytes)"
vector 103 World.node[6].wlan[0].mac rcvdPkFromLL:vector(packetBytes) ETV
attr interpolationmode none
attr source packetReceivedFromLower
attr title "packets received from lower layer, vector(packetBytes)"
vector 104 World.node[6].wlan[0].mac passedUpPk:vector(packetBytes) ETV
attr interpolationmode none
attr source packetSentToUpper
attr title "packets passed to higher layer, vector(packetBytes)"
vector 105 World.node[9].wlan[0].mac rcvdPkFromLL:vector(packetBytes) ETV
attr interpolationmode none
attr source packetReceivedFromLower
attr title "packets received from lower layer, vector(packetBytes)"
vector 106 World.node[9].wlan[0].mac passedUpPk:vector(packetBytes) ETV
attr interpolationmode none
attr source packetSentToUpper
attr title "packets passed to higher layer, vector(packetBytes)"
vector 107 World.node[8].wlan[0].mac rcvdPkFromLL:vector(packetBytes) ETV
attr interpolationmode none
attr source packetReceivedFromLower
attr title "packets received from lower layer, vector(packetBytes)"
vector 108 World.node[8].wlan[0].mac passedUpPk:vector(packetBytes) ETV
attr interpolationmode none
attr source packetSentToUpper
attr title "packets passed to higher layer, vector(packetBytes)"
vector 109 World.node[4].wlan[0].mac rcvdPkFromHL:vector(packetBytes) ETV
attr interpolationmode none
attr source packetReceivedFromUpper
attr title "packets received from higher layer, vector(packetBytes)"
vector 110 World.node[4].wlan[0].mac sentDownPk:vector(packetBytes) ETV
attr interpolationmode none
attr source packetSentToLower
attr title "packets sent to lower layer, vector(packetBytes)"
vector 111 World.node[4].wlan[0].radio transmissionState:vector ETV
attr interpolationmode sample-hold
attr source transmissionStateChanged
attr title "Radio transmission state, vector"
vector 112 World.node[3].wlan[0].mac rcvdPkFromHL:vector(packetBytes) ETV
attr interpolationmode none
attr source packetReceivedFromUpper
attr title "packets received from higher layer, vector(packetBytes)"
vector 113 World.node[3].wlan[0].mac sentDownPk:vector(packetBytes) ETV
attr interpolationmode none
attr source packetSentToLower
attr title "packets sent to lower layer, vector(packetBytes)"
vector 114 World.node[3].wlan[0].radio transmissionState:vector ETV
attr interpolationmode sample-hold
attr source transmissionStateChanged
attr title "Radio transmission state, vector"
vector 115 World.node[10].wlan[0].radio radioMode:vector ETV
attr interpolationmode sample-hold
attr source radioModeChanged
attr title "Radio mode, vector"
vector 116 World.node[10].wlan[0].radio radioChannel:vector ETV
attr interpolationmode sample-hold
attr source radioChannelChanged
attr title "Radio channel, vector"
vector 117 World.node[10].wlan[0].radio receptionState:vector ETV
attr interpolationmode sample-hold
attr source receptionStateChanged
attr title "Radio reception state, vector"
vector 118 World.node[10].wlan[0].mac.dcf.channelAccess.contention state:vector ETV
attr interpolationmode none
attr source stateChanged
attr title "contention state, vector"
vector 119 World.node[10].wlan[0].mac.hcf.edca.edcaf[0].contention state:vector ETV
attr interpolationmode none
attr source stateChanged
attr title "contention state, vector"
vector 120 World.node[10].wlan[0].mac.hcf.edca.edcaf[1].contention state:vector ETV
attr interpolationmode none
attr source stateChanged
attr title "contention state, vector"
vector 121 World.node[10].wlan[0].mac.hcf.edca.edcaf[2].contention state:vector ETV
attr interpolationmode none
attr source stateChanged
attr title "contention state, vector"
vector 122 World.node[10].wlan[0].mac.hcf.edca.edcaf[3].contention state:vector ETV
attr interpolationmode none
attr source stateChanged
attr title "contention state, vector"
vector 123 World.node[11].wlan[0].radio radioMode:vector ETV
attr interpolationmode sample-hold
attr source radioModeChanged
attr title "Radio mode, vector"
vector 124 World.node[11].wlan[0].radio radioChannel:vector ETV
attr interpolationmode sample-hold
attr source radioChannelChanged
attr title "Radio channel, vector"
vector 125 World.node[11].wlan[0].radio receptionState:vector ETV
attr interpolationmode sample-hold
attr source receptionStateChanged
attr title "Radio reception state, vector"
vector 126 World.node[11].wlan[0].mac.dcf.channelAccess.contention state:vector ETV
attr interpolationmode none
attr source stateChanged
attr title "contention state, vector"
vector 127 World.node[11].wlan[0].mac.hcf.edca.edcaf[0].contention state:vector ETV
attr interpolationmode none
attr source stateChanged
attr title "contention state, vector"
vector 128 World.node[11].wlan[0].mac.hcf.edca.edcaf[1].contention state:vector ETV
attr interpolationmode none
attr source stateChanged
attr title "contention state, vector"
vector 129 World.node[11].wlan[0].mac.hcf.edca.edcaf[2].contention state:vector ETV
attr interpolationmode none
attr source stateChanged
attr title "contention state, vector"
vector 130 World.node[11].wlan[0].mac.hcf.edca.edcaf[3].contention state:vector ETV
attr interpolationmode none
attr source stateChanged
attr title "contention state, vector"
vector 131 World.node[6].wlan[0].mac rcvdPkFromHL:vector(packetBytes) ETV
attr interpolationmode none
attr source packetReceivedFromUpper
attr title "packets received from higher layer, vector(packetBytes)"
vector 132 World.node[6].wlan[0].mac sentDownPk:vector(packetBytes) ETV
attr interpolationmode none
attr source packetSentToLower
attr title "packets sent to lower layer, vector(packetBytes)"
vector 133 World.node[6].wlan[0].radio transmissionState:vector ETV
attr interpolationmode sample-hold
attr source transmissionStateChanged
attr title "Radio transmission state, vector"
vector 134 World.node[10].wlan[0].mac rcvdPkFromLL:vector(packetBytes) ETV
attr interpolationmode none
attr source packetReceivedFromLower
attr title "packets received from lower layer, vector(packetBytes)"
vector 135 World.node[10].wlan[0].mac passedUpPk:vector(packetBytes) ETV
attr interpolationmode none
attr source packetSentToUpper
attr title "packets passed to higher layer, vector(packetBytes)"
vector 136 World.node[11].wlan[0].mac rcvdPkFromLL:vector(packetBytes) ETV
attr interpolationmode none
attr source packetReceivedFromLower
attr title "packets received from lower layer, vector(packetBytes)"
vector 137 World.node[11].wlan[0].mac passedUpPk:vector(packetBytes) ETV
attr interpolationmode none
attr source packetSentToUpper
attr title "packets passed to higher layer, vector(packetBytes)"
vector 138 World.node[7].wlan[0].mac rcvdPkFromHL:vector(packetBytes) ETV
attr interpolationmode none
attr source packetReceivedFromUpper
attr title "packets received from higher layer, vector(packetBytes)"
vector 139 World.node[7].wlan[0].mac sentDownPk:vector(packetBytes) ETV
attr interpolationmode none
attr source packetSentToLower
attr title "packets sent to lower layer, vector(packetBytes)"
vector 140 World.node[7].wlan[0].radio transmissionState:vector ETV
attr interpolationmode sample-hold
attr source transmissionStateChanged
attr title "Radio transmission state, vector"
vector 141 World.node[8].wlan[0].mac rcvdPkFromHL:vector(packetBytes) ETV
attr interpolationmode none
attr source packetReceivedFromUpper
attr title "packets received from higher layer, vector(packetBytes)"
vector 142 World.node[8].wlan[0].mac sentDownPk:vector(packetBytes) ETV
attr interpolationmode none
attr source packetSentToLower
attr title "packets sent to lower layer, vector(packetBytes)"
vector 143 World.node[8].wlan[0].radio transmissionState:vector ETV
attr interpolationmode sample-hold
attr source transmissionStateChanged
attr title "Radio transmission state, vector"
vector 144 World.node[9].wlan[0].mac rcvdPkFromHL:vector(packetBytes) ETV
attr interpolationmode none
attr source packetReceivedFromUpper
attr title "packets received from higher layer, vector(packetBytes)"
vector 145 World.node[9].wlan[0].mac sentDownPk:vector(packetBytes) ETV
attr interpolationmode none
attr source packetSentToLower
attr title "packets sent to lower layer, vector(packetBytes)"
vector 146 World.node[9].wlan[0].radio transmissionState:vector ETV
attr interpolationmode sample-hold
attr source transmissionStateChanged
attr title "Radio transmission state, vector"
vector 147 World.node[10].wlan[0].mac rcvdPkFromHL:vector(packetBytes) ETV
attr interpolationmode none
attr source packetReceivedFromUpper
attr title "packets received from higher layer, vector(packetBytes)"
vector 148 World.node[10].wlan[0].mac sentDownPk:vector(packetBytes) ETV
attr interpolationmode none
attr source packetSentToLower
attr title "packets sent to lower layer, vector(packetBytes)"
vector 149 World.node[10].wlan[0].radio transmissionState:vector ETV
attr interpolationmode sample-hold
attr source transmissionStateChanged
attr title "Radio transmission state, vector"
vector 150 World.node[12].wlan[0].radio radioMode:vector ETV
attr interpolationmode sample-hold
attr source radioModeChanged
attr title "Radio mode, vector"
vector 151 World.node[12].wlan[0].radio radioChannel:vector ETV
attr interpolationmode sample-hold
attr source radioChannelChanged
attr title "Radio channel, vector"
vector 152 World.node[12].wlan[0].radio receptionState:vector ETV
attr interpolationmode sample-hold
attr source receptionStateChanged
attr title "Radio reception state, vector"
vector 153 World.node[12].wlan[0].mac.dcf.channelAccess.contention state:vector ETV
attr interpolationmode none
attr source stateChanged
attr title "contention state, vector"
vector 154 World.node[12].wlan[0].mac.hcf.edca.edcaf[0].contention state:vector ETV
attr interpolationmode none
attr source stateChanged
attr title "contention state, vector"
vector 155 World.node[12].wlan[0].mac.hcf.edca.edcaf[1].contention state:vector ETV
attr interpolationmode none
attr source stateChanged
attr title "contention state, vector"
vector 156 World.node[12].wlan[0].mac.hcf.edca.edcaf[2].contention state:vector ETV
attr interpolationmode none
attr source stateChanged
attr title "contention state, vector"
vector 157 World.node[12].wlan[0].mac.hcf.edca.edcaf[3].contention state:vector ETV
attr interpolationmode none
attr source stateChanged
attr title "contention state, vector"
vector 158 World.node[13].wlan[0].radio radioMode:vector ETV
attr interpolationmode sample-hold
attr source radioModeChanged
attr title "Radio mode, vector"
vector 159 World.node[13].wlan[0].radio radioChannel:vector ETV
attr interpolationmode sample-hold
attr source radioChannelChanged
attr title "Radio channel, vector"
vector 160 World.node[13].wlan[0].radio receptionState:vector ETV
attr interpolationmode sample-hold
attr source receptionStateChanged
attr title "Radio reception state, vector"
vector 161 World.node[13].wlan[0].mac.dcf.channelAccess.contention state:vector ETV
attr interpolationmode none
attr source stateChanged
attr title "contention state, vector"
vector 162 World.node[13].wlan[0].mac.hcf.edca.edcaf[0].contention state:vector ETV
attr interpolationmode none
attr source stateChanged
attr title "contention state, vector"
vector 163 World.node[13].wlan[0].mac.hcf.edca.edcaf[1].contention state:vector ETV
attr interpolationmode none
attr source stateChanged
attr title "contention state, vector"
vector 164 World.node[13].wlan[0].mac.hcf.edca.edcaf[2].contention state:vector ETV
attr interpolationmode none
attr source stateChanged
attr title "contention state, vector"
vector 165 World.node[13].wlan[0].mac.hcf.edca.edcaf[3].contention state:vector ETV
attr interpolationmode none
attr source stateChanged
attr title "contention state, vector"
vector 166 World.node[13].wlan[0].mac rcvdPkFromLL:vector(packetBytes) ETV
attr interpolationmode none
attr source packetReceivedFromLower
attr title "packets received from lower layer, vector(packetBytes)"
vector 167 World.node[13].wlan[0].mac passedUpPk:vector(packetBytes) ETV
attr interpolationmode none
attr source packetSentToUpper
attr title "packets passed to higher layer, vector(packetBytes)"
vector 168 World.node[12].wlan[0].mac rcvdPkFromLL:vector(packetBytes) ETV
attr interpolationmode none
attr source packetReceivedFromLower
attr title "packets received from lower layer, vector(packetBytes)"
vector 169 World.node[12].wlan[0].mac passedUpPk:vector(packetBytes) ETV
attr interpolationmode none
attr source packetSentToUpper
attr title "packets passed to higher layer, vector(packetBytes)"
vector 170 World.node[11].wlan[0].mac rcvdPkFromHL:vector(packetBytes) ETV
attr interpolationmode none
attr source packetReceivedFromUpper
attr title "packets received from higher layer, vector(packetBytes)"
vector 171 World.node[11].wlan[0].mac sentDownPk:vector(packetBytes) ETV
attr interpolationmode none
attr source packetSentToLower
attr title "packets sent to lower layer, vector(packetBytes)"
vector 172 World.node[11].wlan[0].radio transmissionState:vector ETV
attr interpolationmode sample-hold
attr source transmissionStateChanged
attr title "Radio transmission state, vector"
vector 173 World.node[14].wlan[0].radio radioMode:vector ETV
attr interpolationmode sample-hold
attr source radioModeChanged
attr title "Radio mode, vector"
vector 174 World.node[14].wlan[0].radio radioChannel:vector ETV
attr interpolationmode sample-hold
attr source radioChannelChanged
attr title "Radio channel, vector"
vector 175 World.node[14].wlan[0].radio receptionState:vector ETV
attr interpolationmode sample-hold
attr source receptionStateChanged
attr title "Radio reception state, vector"
vector 176 World.node[14].wlan[0].mac.dcf.channelAccess.contention state:vector ETV
attr interpolationmode none
attr source stateChanged
attr title "contention state, vector"
vector 177 World.node[14].wlan[0].mac.hcf.edca.edcaf[0].contention state:vector ETV
attr interpolationmode none
attr source stateChanged
attr title "contention state, vector"
vector 178 World.node[14].wlan[0].mac.hcf.edca.edcaf[1].contention state:vector ETV
attr interpolationmode none
attr source stateChanged
attr title "contention state, vector"
vector 179 World.node[14].wlan[0].mac.hcf.edca.edcaf[2].contention state:vector ETV
attr interpolationmode none
attr source stateChanged
attr title "contention state, vector"
vector 180 World.node[14].wlan[0].mac.hcf.edca.edcaf[3].contention state:vector ETV
attr interpolationmode none
attr source stateChanged
attr title "contention state, vector"
vector 181 World.node[15].wlan[0].radio radioMode:vector ETV
attr interpolationmode sample-hold
attr source radioModeChanged
attr title "Radio mode, vector"
vector 182 World.node[15].wlan[0].radio radioChannel:vector ETV
attr interpolationmode sample-hold
attr source radioChannelChanged
attr title "Radio channel, vector"
vector 183 World.node[15].wlan[0].radio receptionState:vector ETV
attr interpolationmode sample-hold
attr source receptionStateChanged
attr title "Radio reception state, vector"
vector 184 World.node[15].wlan[0].mac.dcf.channelAccess.contention state:vector ETV
attr interpolationmode none
attr source stateChanged
attr title "contention state, vector"
vector 185 World.node[15].wlan[0].mac.hcf.edca.edcaf[0].contention state:vector ETV
attr interpolationmode none
attr source stateChanged
attr title "contention state, vector"
vector 186 World.node[15].wlan[0].mac.hcf.edca.edcaf[1].contention state:vector ETV
attr interpolationmode none
attr source stateChanged
attr title "contention state, vector"
vector 187 World.node[15].wlan[0].mac.hcf.edca.edcaf[2].contention state:vector ETV
attr interpolationmode none
attr source stateChanged
attr title "contention state, vector"
vector 188 World.node[15].wlan[0].mac.hcf.edca.edcaf[3].contention state:vector ETV
attr interpolationmode none
attr source stateChanged
attr title "contention state, vector"
vector 189 World.node[16].wlan[0].radio radioMode:vector ETV
attr interpolationmode sample-hold
attr source radioModeChanged
attr title "Radio mode, vector"
vector 190 World.node[16].wlan[0].radio radioChannel:vector ETV
attr interpolationmode sample-hold
attr source radioChannelChanged
attr title "Radio channel, vector"
vector 191 World.node[16].wlan[0].radio receptionState:vector ETV
attr interpolationmode sample-hold
attr source receptionStateChanged
attr title "Radio reception state, vector"
vector 192 World.node[16].wlan[0].mac.dcf.channelAccess.contention state:vector ETV
attr interpolationmode none
attr source stateChanged
attr title "contention state, vector"
vector 193 World.node[16].wlan[0].mac.hcf.edca.edcaf[0].contention state:vector ETV
attr interpolationmode none
attr source stateChanged
attr title "contention state, vector"
vector 194 World.node[16].wlan[0].mac.hcf.edca.edcaf[1].contention state:vector ETV
attr interpolationmode none
attr source stateChanged
attr title "contention state, vector"
vector 195 World.node[16].wlan[0].mac.hcf.edca.edcaf[2].contention state:vector ETV
attr interpolationmode none
attr source stateChanged
attr title "contention state, vector"
vector 196 World.node[16].wlan[0].mac.hcf.edca.edcaf[3].contention state:vector ETV
attr interpolationmode none
attr source stateChanged
attr title "contention state, vector"
57	37915 1830 121 6548 3.084635447867 6.984667415318 69 116 146 9498 1319244
99	39745 80 298 3997 4.038438170822 6.038438170822 3 116 116 348 40368
98	39825 80 295 3994 4.038438170822 6.038438170822 3 116 116 348 40368
58	39905 1830 121 6548 3.084635447867 6.984667415318 69 116 146 9498 1319244
43	41735 7082 81 6547 3 6.984667415318 290 0 0 0 0
44	48817 7082 81 6547 3 6.984667415318 290 0 0 0 0
45	55899 7378 81 6547 3 6.984667415318 302 0 2 12 24
46	63277 7082 81 6547 3 6.984667415318 290 0 0 0 0
47	70359 7082 81 6547 3 6.984667415318 290 0 0 0 0
41	77441 12 81 81 3 3 1 180 180 180 32400
100	77453 308 299 4014 4.038438170822 6.038638170822 12 0 2 12 18
42	77761 3541 81 6547 3 6.984667415318 145 0 3 280 694
40	81302 168 81 4014 3 6.038638170822 8 0 3 17 43
vector 197 World.node[12].wlan[0].mac rcvdPkFromHL:vector(packetBytes) ETV
attr interpolationmode none
attr source packetReceivedFromUpper
attr title "packets received from higher layer, vector(packetBytes)"
vector 198 World.node[12].wlan[0].mac sentDownPk:vector(packetBytes) ETV
attr interpolationmode none
attr source packetSentToLower
attr title "packets sent to lower layer, vector(packetBytes)"
vector 199 World.node[12].wlan[0].radio transmissionState:vector ETV
attr interpolationmode sample-hold
attr source transmissionStateChanged
attr title "Radio transmission state, vector"
vector 200 World.node[14].wlan[0].mac rcvdPkFromLL:vector(packetBytes) ETV
attr interpolationmode none
attr source packetReceivedFromLower
attr title "packets received from lower layer, vector(packetBytes)"
vector 201 World.node[14].wlan[0].mac passedUpPk:vector(packetBytes) ETV
attr interpolationmode none
attr source packetSentToUpper
attr title "packets passed to higher layer, vector(packetBytes)"
vector 202 World.node[15].wlan[0].mac rcvdPkFromLL:vector(packetBytes) ETV
attr interpolationmode none
attr source packetReceivedFromLower
attr title "packets received from lower layer, vector(packetBytes)"
vector 203 World.node[15].wlan[0].mac passedUpPk:vector(packetBytes) ETV
attr interpolationmode none
attr source packetSentToUpper
attr title "packets passed to higher layer, vector(packetBytes)"
vector 204 World.node[16].wlan[0].mac rcvdPkFromLL:vector(packetBytes) ETV
attr interpolationmode none
attr source packetReceivedFromLower
attr title "packets received from lower layer, vector(packetBytes)"
vector 205 World.node[16].wlan[0].mac passedUpPk:vector(packetBytes) ETV
attr interpolationmode none
attr source packetSentToUpper
attr title "packets passed to higher layer, vector(packetBytes)"
vector 206 World.node[13].wlan[0].mac rcvdPkFromHL:vector(packetBytes) ETV
attr interpolationmode none
attr source packetReceivedFromUpper
attr title "packets received from higher layer, vector(packetBytes)"
vector 207 World.node[13].wlan[0].mac sentDownPk:vector(packetBytes) ETV
attr interpolationmode none
attr source packetSentToLower
attr title "packets sent to lower layer, vector(packetBytes)"
vector 208 World.node[13].wlan[0].radio transmissionState:vector ETV
attr interpolationmode sample-hold
attr source transmissionStateChanged
attr title "Radio transmission state, vector"
vector 209 World.node[17].wlan[0].radio radioMode:vector ETV
attr interpolationmode sample-hold
attr source radioModeChanged
attr title "Radio mode, vector"
vector 210 World.node[17].wlan[0].radio radioChannel:vector ETV
attr interpolationmode sample-hold
attr source radioChannelChanged
attr title "Radio channel, vector"
vector 211 World.node[17].wlan[0].radio receptionState:vector ETV
attr interpolationmode sample-hold
attr source receptionStateChanged
attr title "Radio reception state, vector"
vector 212 World.node[17].wlan[0].mac.dcf.channelAccess.contention state:vector ETV
attr interpolationmode none
attr source stateChanged
attr title "contention state, vector"
vector 213 World.node[17].wlan[0].mac.hcf.edca.edcaf[0].contention state:vector ETV
attr interpolationmode none
attr source stateChanged
attr title "contention state, vector"
vector 214 World.node[17].wlan[0].mac.hcf.edca.edcaf[1].contention state:vector ETV
attr interpolationmode none
attr source stateChanged
attr title "contention state, vector"
vector 215 World.node[17].wlan[0].mac.hcf.edca.edcaf[2].contention state:vector ETV
attr interpolationmode none
attr source stateChanged
attr title "contention state, vector"
vector 216 World.node[17].wlan[0].mac.hcf.edca.edcaf[3].contention state:vector ETV
attr interpolationmode none
attr source stateChanged
attr title "contention state, vector"
vector 217 World.node[18].wlan[0].radio radioMode:vector ETV
attr interpolationmode sample-hold
attr source radioModeChanged
attr title "Radio mode, vector"
vector 218 World.node[18].wlan[0].radio radioChannel:vector ETV
attr interpolationmode sample-hold
attr source radioChannelChanged
attr title "Radio channel, vector"
vector 219 World.node[18].wlan[0].radio receptionState:vector ETV
attr interpolationmode sample-hold
attr source receptionStateChanged
attr title "Radio reception state, vector"
vector 220 World.node[18].wlan[0].mac.dcf.channelAccess.contention state:vector ETV
attr interpolationmode none
attr source stateChanged
attr title "contention state, vector"
vector 221 World.node[18].wlan[0].mac.hcf.edca.edcaf[0].contention state:vector ETV
attr interpolationmode none
attr source stateChanged
attr title "contention state, vector"
vector 222 World.node[18].wlan[0].mac.hcf.edca.edcaf[1].contention state:vector ETV
attr interpolationmode none
attr source stateChanged
attr title "contention state, vector"
vector 223 World.node[18].wlan[0].mac.hcf.edca.edcaf[2].contention state:vector ETV
attr interpolationmode none
attr source stateChanged
attr title "contention state, vector"
vector 224 World.node[18].wlan[0].mac.hcf.edca.edcaf[3].contention state:vector ETV
attr interpolationmode none
attr source stateChanged
attr title "contention state, vector"
101	86607 2683 313 9896 4.038638723277 7.984965976591 97 116 198 13863 2031387
139	89290 84 1485 6895 5.027265629452 7.027265629452 3 119 119 357 42483
138	89374 84 1482 6892 5.027265629452 7.027265629452 3 119 119 357 42483
102	89458 2683 313 9896 4.038638723277 7.984965976591 97 116 198 13863 2031387
77	92141 9888 281 9895 4 7.984965976591 402 0 0 0 0
78	102029 9888 281 9895 4 7.984965976591 402 0 0 0 0
79	111917 10188 281 9895 4 7.984965976591 414 0 2 12 24
80	122105 9888 281 9895 4 7.984965976591 402 0 0 0 0
81	131993 9888 281 9895 4 7.984965976591 402 0 0 0 0
75	141881 13 281 281 4 4 1 180 180 180 32400
140	141894 312 1486 6914 5.027265629452 7.027473629452 12 0 2 12 18
76	142206 4944 281 9895 4 7.984965976591 201 0 3 392 974
74	147150 172 281 6914 4 7.027473629452 8 0 3 17 43
vector 225 World.node[19].wlan[0].radio radioMode:vector ETV
attr interpolationmode sample-hold
attr source radioModeChanged
attr title "Radio mode, vector"
vector 226 World.node[19].wlan[0].radio radioChannel:vector ETV
attr interpolationmode sample-hold
attr source radioChannelChanged
attr title "Radio channel, vector"
vector 227 World.node[19].wlan[0].radio receptionState:vector ETV
attr interpolationmode sample-hold
attr source receptionStateChanged
attr title "Radio reception state, vector"
vector 228 World.node[19].wlan[0].mac.dcf.channelAccess.contention state:vector ETV
attr interpolationmode none
attr source stateChanged
attr title "contention state, vector"
vector 229 World.node[19].wlan[0].mac.hcf.edca.edcaf[0].contention state:vector ETV
attr interpolationmode none
attr source stateChanged
attr title "contention state, vector"
vector 230 World.node[19].wlan[0].mac.hcf.edca.edcaf[1].contention state:vector ETV
attr interpolationmode none
attr source stateChanged
attr title "contention state, vector"
vector 231 World.node[19].wlan[0].mac.hcf.edca.edcaf[2].contention state:vector ETV
attr interpolationmode none
attr source stateChanged
attr title "contention state, vector"
vector 232 World.node[19].wlan[0].mac.hcf.edca.edcaf[3].contention state:vector ETV
attr interpolationmode none
attr source stateChanged
attr title "contention state, vector"
vector 233 World.node[19].wlan[0].mac rcvdPkFromLL:vector(packetBytes) ETV
attr interpolationmode none
attr source packetReceivedFromLower
attr title "packets received from lower layer, vector(packetBytes)"
vector 234 World.node[19].wlan[0].mac passedUpPk:vector(packetBytes) ETV
attr interpolationmode none
attr source packetSentToUpper
attr title "packets passed to higher layer, vector(packetBytes)"
vector 235 World.node[18].wlan[0].mac rcvdPkFromLL:vector(packetBytes) ETV
attr interpolationmode none
attr source packetReceivedFromLower
attr title "packets received from lower layer, vector(packetBytes)"
vector 236 World.node[18].wlan[0].mac passedUpPk:vector(packetBytes) ETV
attr interpolationmode none
attr source packetSentToUpper
attr title "packets passed to higher layer, vector(packetBytes)"
vector 237 World.node[17].wlan[0].mac rcvdPkFromLL:vector(packetBytes) ETV
attr interpolationmode none
attr source packetReceivedFromLower
attr title "packets received from lower layer, vector(packetBytes)"
vector 238 World.node[17].wlan[0].mac passedUpPk:vector(packetBytes) ETV
attr interpolationmode none
attr source packetSentToUpper
attr title "packets passed to higher layer, vector(packetBytes)"
vector 239 World.node[14].wlan[0].mac rcvdPkFromHL:vector(packetBytes) ETV
attr interpolationmode none
attr source packetReceivedFromUpper
attr title "packets received from higher layer, vector(packetBytes)"
vector 240 World.node[14].wlan[0].mac sentDownPk:vector(packetBytes) ETV
attr interpolationmode none
attr source packetSentToLower
attr title "packets sent to lower layer, vector(packetBytes)"
vector 241 World.node[14].wlan[0].radio transmissionState:vector ETV
attr interpolationmode sample-hold
attr source transmissionStateChanged
attr title "Radio transmission state, vector"
vector 242 World.node[15].wlan[0].mac rcvdPkFromHL:vector(packetBytes) ETV
attr interpolationmode none
attr source packetReceivedFromUpper
attr title "packets received from higher layer, vector(packetBytes)"
vector 243 World.node[15].wlan[0].mac sentDownPk:vector(packetBytes) ETV
attr interpolationmode none
attr source packetSentToLower
attr title "packets sent to lower layer, vector(packetBytes)"
vector 244 World.node[15].wlan[0].radio transmissionState:vector ETV
attr interpolationmode sample-hold
attr source transmissionStateChanged
attr title "Radio transmission state, vector"
vector 245 World.node[16].wlan[0].mac rcvdPkFromHL:vector(packetBytes) ETV
attr interpolationmode none
attr source packetReceivedFromUpper
attr title "packets received from higher layer, vector(packetBytes)"
vector 246 World.node[16].wlan[0].mac sentDownPk:vector(packetBytes) ETV
attr interpolationmode none
attr source packetSentToLower
attr title "packets sent to lower layer, vector(packetBytes)"
vector 247 World.node[16].wlan[0].radio transmissionState:vector ETV
attr interpolationmode sample-hold
attr source transmissionStateChanged
attr title "Radio transmission state, vector"
vector 248 World.node[17].wlan[0].mac rcvdPkFromHL:vector(packetBytes) ETV
attr interpolationmode none
attr source packetReceivedFromUpper
attr title "packets received from higher layer, vector(packetBytes)"
vector 249 World.node[17].wlan[0].mac sentDownPk:vector(packetBytes) ETV
attr interpolationmode none
attr source packetSentToLower
attr title "packets sent to lower layer, vector(packetBytes)"
vector 250 World.node[17].wlan[0].radio transmissionState:vector ETV
attr interpolationmode sample-hold
attr source transmissionStateChanged
attr title "Radio transmission state, vector"
vector 251 World.node[18].wlan[0].mac rcvdPkFromHL:vector(packetBytes) ETV
attr interpolationmode none
attr source packetReceivedFromUpper
attr title "packets received from higher layer, vector(packetBytes)"
vector 252 World.node[18].wlan[0].mac sentDownPk:vector(packetBytes) ETV
attr interpolationmode none
attr source packetSentToLower
attr title "packets sent to lower layer, vector(packetBytes)"
vector 253 World.node[18].wlan[0].radio transmissionState:vector ETV
attr interpolationmode sample-hold
attr source transmissionStateChanged
attr title "Radio transmission state, vector"
vector 254 World.node[20].wlan[0].radio radioMode:vector ETV
attr interpolationmode sample-hold
attr source radioModeChanged
attr title "Radio mode, vector"
vector 255 World.node[20].wlan[0].radio radioChannel:vector ETV
attr interpolationmode sample-hold
attr source radioChannelChanged
attr title "Radio channel, vector"
vector 256 World.node[20].wlan[0].radio receptionState:vector ETV
attr interpolationmode sample-hold
attr source receptionStateChanged
attr title "Radio reception state, vector"
vector 257 World.node[20].wlan[0].mac.dcf.channelAccess.contention state:vector ETV
attr interpolationmode none
attr source stateChanged
attr title "contention state, vector"
vector 258 World.node[20].wlan[0].mac.hcf.edca.edcaf[0].contention state:vector ETV
attr interpolationmode none
attr source stateChanged
attr title "contention state, vector"
vector 259 World.node[20].wlan[0].mac.hcf.edca.edcaf[1].contention state:vector ETV
attr interpolationmode none
attr source stateChanged
attr title "contention state, vector"
vector 260 World.node[20].wlan[0].mac.hcf.edca.edcaf[2].contention state:vector ETV
attr interpolationmode none
attr source stateChanged
attr title "contention state, vector"
vector 261 World.node[20].wlan[0].mac.hcf.edca.edcaf[3].contention state:vector ETV
attr interpolationmode none
attr source stateChanged
attr title "contention state, vector"
vector 262 World.node[21].wlan[0].radio radioMode:vector ETV
attr interpolationmode sample-hold
attr source radioModeChanged
attr title "Radio mode, vector"
vector 263 World.node[21].wlan[0].radio radioChannel:vector ETV
attr interpolationmode sample-hold
attr source radioChannelChanged
attr title "Radio channel, vector"
vector 264 World.node[21].wlan[0].radio receptionState:vector ETV
attr interpolationmode sample-hold
attr source receptionStateChanged
attr title "Radio reception state, vector"
vector 265 World.node[21].wlan[0].mac.dcf.channelAccess.contention state:vector ETV
attr interpolationmode none
attr source stateChanged
attr title "contention state, vector"
vector 266 World.node[21].wlan[0].mac.hcf.edca.edcaf[0].contention state:vector ETV
attr interpolationmode none
attr source stateChanged
attr title "contention state, vector"
vector 267 World.node[21].wlan[0].mac.hcf.edca.edcaf[1].contention state:vector ETV
attr interpolationmode none
attr source stateChanged
attr title "contention state, vector"
vector 268 World.node[21].wlan[0].mac.hcf.edca.edcaf[2].contention state:vector ETV
attr interpolationmode none
attr source stateChanged
attr title "contention state, vector"
vector 269 World.node[21].wlan[0].mac.hcf.edca.edcaf[3].contention state:vector ETV
attr interpolationmode none
attr source stateChanged
attr title "contention state, vector"
vector 270 World.node[22].wlan[0].radio radioMode:vector ETV
attr interpolationmode sample-hold
attr source radioModeChanged
attr title "Radio mode, vector"
vector 271 World.node[22].wlan[0].radio radioChannel:vector ETV
attr interpolationmode sample-hold
attr source radioChannelChanged
attr title "Radio channel, vector"
vector 272 World.node[22].wlan[0].radio receptionState:vector ETV
attr interpolationmode sample-hold
attr source receptionStateChanged
attr title "Radio reception state, vector"
vector 273 World.node[22].wlan[0].mac.dcf.channelAccess.contention state:vector ETV
attr interpolationmode none
attr source stateChanged
attr title "contention state, vector"
vector 274 World.node[22].wlan[0].mac.hcf.edca.edcaf[0].contention state:vector ETV
attr interpolationmode none
attr source stateChanged
attr title "contention state, vector"
vector 275 World.node[22].wlan[0].mac.hcf.edca.edcaf[1].contention state:vector ETV
attr interpolationmode none
attr source stateChanged
attr title "contention state, vector"
vector 276 World.node[22].wlan[0].mac.hcf.edca.edcaf[2].contention state:vector ETV
attr interpolationmode none
attr source stateChanged
attr title "contention state, vector"
vector 277 World.node[22].wlan[0].mac.hcf.edca.edcaf[3].contention state:vector ETV
attr interpolationmode none
attr source stateChanged
attr title "contention state, vector"
vector 278 World.node[22].wlan[0].mac rcvdPkFromLL:vector(packetBytes) ETV
attr interpolationmode none
attr source packetReceivedFromLower
attr title "packets received from lower layer, vector(packetBytes)"
vector 279 World.node[22].wlan[0].mac passedUpPk:vector(packetBytes) ETV
attr interpolationmode none
attr source packetSentToUpper
attr title "packets passed to higher layer, vector(packetBytes)"
vector 280 World.node[21].wlan[0].mac rcvdPkFromLL:vector(packetBytes) ETV
attr interpolationmode none
attr source packetReceivedFromLower
attr title "packets received from lower layer, vector(packetBytes)"
vector 281 World.node[21].wlan[0].mac passedUpPk:vector(packetBytes) ETV
attr interpolationmode none
attr source packetSentToUpper
attr title "packets passed to higher layer, vector(packetBytes)"
vector 282 World.node[20].wlan[0].mac rcvdPkFromLL:vector(packetBytes) ETV
attr interpolationmode none
attr source packetReceivedFromLower
attr title "packets received from lower layer, vector(packetBytes)"
vector 283 World.node[20].wlan[0].mac passedUpPk:vector(packetBytes) ETV
attr interpolationmode none
attr source packetSentToUpper
attr title "packets passed to higher layer, vector(packetBytes)"
vector 284 World.node[19].wlan[0].mac rcvdPkFromHL:vector(packetBytes) ETV
attr interpolationmode none
attr source packetReceivedFromUpper
attr title "packets received from higher layer, vector(packetBytes)"
vector 285 World.node[19].wlan[0].mac sentDownPk:vector(packetBytes) ETV
attr interpolationmode none
attr source packetSentToLower
attr title "packets sent to lower layer, vector(packetBytes)"
vector 286 World.node[19].wlan[0].radio transmissionState:vector ETV
attr interpolationmode sample-hold
attr source transmissionStateChanged
attr title "Radio transmission state, vector"
vector 287 World.node[20].wlan[0].mac rcvdPkFromHL:vector(packetBytes) ETV
attr interpolationmode none
attr source packetReceivedFromUpper
attr title "packets received from higher layer, vector(packetBytes)"
vector 288 World.node[20].wlan[0].mac sentDownPk:vector(packetBytes) ETV
attr interpolationmode none
attr source packetSentToLower
attr title "packets sent to lower layer, vector(packetBytes)"
vector 289 World.node[20].wlan[0].radio transmissionState:vector ETV
attr interpolationmode sample-hold
attr source transmissionStateChanged
attr title "Radio transmission state, vector"
vector 290 World.node[23].wlan[0].radio radioMode:vector ETV
attr interpolationmode sample-hold
attr source radioModeChanged
attr title "Radio mode, vector"
vector 291 World.node[23].wlan[0].radio radioChannel:vector ETV
attr interpolationmode sample-hold
attr source radioChannelChanged
attr title "Radio channel, vector"
vector 292 World.node[23].wlan[0].radio receptionState:vector ETV
attr interpolationmode sample-hold
attr source receptionStateChanged
attr title "Radio reception state, vector"
vector 293 World.node[23].wlan[0].mac.dcf.channelAccess.contention state:vector ETV
attr interpolationmode none
attr source stateChanged
attr title "contention state, vector"
vector 294 World.node[23].wlan[0].mac.hcf.edca.edcaf[0].contention state:vector ETV
attr interpolationmode none
attr source stateChanged
attr title "contention state, vector"
vector 295 World.node[23].wlan[0].mac.hcf.edca.edcaf[1].contention state:vector ETV
attr interpolationmode none
attr source stateChanged
attr title "contention state, vector"
vector 296 World.node[23].wlan[0].mac.hcf.edca.edcaf[2].contention state:vector ETV
attr interpolationmode none
attr source stateChanged
attr title "contention state, vector"
vector 297 World.node[23].wlan[0].mac.hcf.edca.edcaf[3].contention state:vector ETV
attr interpolationmode none
attr source stateChanged
attr title "contention state, vector"
vector 298 World.node[24].wlan[0].radio radioMode:vector ETV
attr interpolationmode sample-hold
attr source radioModeChanged
attr title "Radio mode, vector"
vector 299 World.node[24].wlan[0].radio radioChannel:vector ETV
attr interpolationmode sample-hold
attr source radioChannelChanged
attr title "Radio channel, vector"
vector 300 World.node[24].wlan[0].radio receptionState:vector ETV
attr interpolationmode sample-hold
attr source receptionStateChanged
attr title "Radio reception state, vector"
vector 301 World.node[24].wlan[0].mac.dcf.channelAccess.contention state:vector ETV
attr interpolationmode none
attr source stateChanged
attr title "contention state, vector"
vector 302 World.node[24].wlan[0].mac.hcf.edca.edcaf[0].contention state:vector ETV
attr interpolationmode none
attr source stateChanged
attr title "contention state, vector"
vector 303 World.node[24].wlan[0].mac.hcf.edca.edcaf[1].contention state:vector ETV
attr interpolationmode none
attr source stateChanged
attr title "contention state, vector"
vector 304 World.node[24].wlan[0].mac.hcf.edca.edcaf[2].contention state:vector ETV
attr interpolationmode none
attr source stateChanged
attr title "contention state, vector"
vector 305 World.node[24].wlan[0].mac.hcf.edca.edcaf[3].contention state:vector ETV
attr interpolationmode none
attr source stateChanged
attr title "contention state, vector"
vector 306 World.node[25].wlan[0].radio radioMode:vector ETV
attr interpolationmode sample-hold
attr source radioModeChanged
attr title "Radio mode, vector"
vector 307 World.node[25].wlan[0].radio radioChannel:vector ETV
attr interpolationmode sample-hold
attr source radioChannelChanged
attr title "Radio channel, vector"
vector 308 World.node[25].wlan[0].radio receptionState:vector ETV
attr interpolationmode sample-hold
attr source receptionStateChanged
attr title "Radio reception state, vector"
vector 309 World.node[25].wlan[0].mac.dcf.channelAccess.contention state:vector ETV
attr interpolationmode none
attr source stateChanged
attr title "contention state, vector"
vector 310 World.node[25].wlan[0].mac.hcf.edca.edcaf[0].contention state:vector ETV
attr interpolationmode none
attr source stateChanged
attr title "contention state, vector"
vector 311 World.node[25].wlan[0].mac.hcf.edca.edcaf[1].contention state:vector ETV
attr interpolationmode none
attr source stateChanged
attr title "contention state, vector"
vector 312 World.node[25].wlan[0].mac.hcf.edca.edcaf[2].contention state:vector ETV
attr interpolationmode none
attr source stateChanged
attr title "contention state, vector"
vector 313 World.node[25].wlan[0].mac.hcf.edca.edcaf[3].contention state:vector ETV
attr interpolationmode none
attr source stateChanged
attr title "contention state, vector"
vector 314 World.node[23].wlan[0].mac rcvdPkFromLL:vector(packetBytes) ETV
attr interpolationmode none
attr source packetReceivedFromLower
attr title "packets received from lower layer, vector(packetBytes)"
vector 315 World.node[23].wlan[0].mac passedUpPk:vector(packetBytes) ETV
attr interpolationmode none
attr source packetSentToUpper
attr title "packets passed to higher layer, vector(packetBytes)"
vector 316 World.node[24].wlan[0].mac rcvdPkFromLL:vector(packetBytes) ETV
attr interpolationmode none
attr source packetReceivedFromLower
attr title "packets received from lower layer, vector(packetBytes)"
vector 317 World.node[24].wlan[0].mac passedUpPk:vector(packetBytes) ETV
attr interpolationmode none
attr source packetSentToUpper
attr title "packets passed to higher layer, vector(packetBytes)"
vector 318 World.node[25].wlan[0].mac rcvdPkFromLL:vector(packetBytes) ETV
attr interpolationmode none
attr source packetReceivedFromLower
attr title "packets received from lower layer, vector(packetBytes)"
vector 319 World.node[25].wlan[0].mac passedUpPk:vector(packetBytes) ETV
attr interpolationmode none
attr source packetSentToUpper
attr title "packets passed to higher layer, vector(packetBytes)"
vector 320 World.node[22].wlan[0].mac rcvdPkFromHL:vector(packetBytes) ETV
attr interpolationmode none
attr source packetReceivedFromUpper
attr title "packets received from higher layer, vector(packetBytes)"
vector 321 World.node[22].wlan[0].mac sentDownPk:vector(packetBytes) ETV
attr interpolationmode none
attr source packetSentToLower
attr title "packets sent to lower layer, vector(packetBytes)"
vector 322 World.node[22].wlan[0].radio transmissionState:vector ETV
attr interpolationmode sample-hold
attr source transmissionStateChanged
attr title "Radio transmission state, vector"
vector 323 World.node[21].wlan[0].mac rcvdPkFromHL:vector(packetBytes) ETV
attr interpolationmode none
attr source packetReceivedFromUpper
attr title "packets received from higher layer, vector(packetBytes)"
vector 324 World.node[21].wlan[0].mac sentDownPk:vector(packetBytes) ETV
attr interpolationmode none
attr source packetSentToLower
attr title "packets sent to lower layer, vector(packetBytes)"
vector 325 World.node[21].wlan[0].radio transmissionState:vector ETV
attr interpolationmode sample-hold
attr source transmissionStateChanged
attr title "Radio transmission state, vector"
vector 326 World.node[23].wlan[0].mac rcvdPkFromHL:vector(packetBytes) ETV
attr interpolationmode none
attr source packetReceivedFromUpper
attr title "packets received from higher layer, vector(packetBytes)"
vector 327 World.node[23].wlan[0].mac sentDownPk:vector(packetBytes) ETV
attr interpolationmode none
attr source packetSentToLower
attr title "packets sent to lower layer, vector(packetBytes)"
vector 328 World.node[23].wlan[0].radio transmissionState:vector ETV
attr interpolationmode sample-hold
attr source transmissionStateChanged
attr title "Radio transmission state, vector"
vector 329 World.node[26].wlan[0].radio radioMode:vector ETV
attr interpolationmode sample-hold
attr source radioModeChanged
attr title "Radio mode, vector"
vector 330 World.node[26].wlan[0].radio radioChannel:vector ETV
attr interpolationmode sample-hold
attr source radioChannelChanged
attr title "Radio channel, vector"
vector 331 World.node[26].wlan[0].radio receptionState:vector ETV
attr interpolationmode sample-hold
attr source receptionStateChanged
attr title "Radio reception state, vector"
vector 332 World.node[26].wlan[0].mac.dcf.channelAccess.contention state:vector ETV
attr interpolationmode none
attr source stateChanged
attr title "contention state, vector"
vector 333 World.node[26].wlan[0].mac.hcf.edca.edcaf[0].contention state:vector ETV
attr interpolationmode none
attr source stateChanged
attr title "contention state, vector"
vector 334 World.node[26].wlan[0].mac.hcf.edca.edcaf[1].contention state:vector ETV
attr interpolationmode none
attr source stateChanged
attr title "contention state, vector"
vector 335 World.node[26].wlan[0].mac.hcf.edca.edcaf[2].contention state:vector ETV
attr interpolationmode none
attr source stateChanged
attr title "contention state, vector"
vector 336 World.node[26].wlan[0].mac.hcf.edca.edcaf[3].contention state:vector ETV
attr interpolationmode none
attr source stateChanged
attr title "contention state, vector"
vector 337 World.node[27].wlan[0].radio radioMode:vector ETV
attr interpolationmode sample-hold
attr source radioModeChanged
attr title "Radio mode, vector"
vector 338 World.node[27].wlan[0].radio radioChannel:vector ETV
attr interpolationmode sample-hold
attr source radioChannelChanged
attr title "Radio channel, vector"
vector 339 World.node[27].wlan[0].radio receptionState:vector ETV
attr interpolationmode sample-hold
attr source receptionStateChanged
attr title "Radio reception state, vector"
vector 340 World.node[27].wlan[0].mac.dcf.channelAccess.contention state:vector ETV
attr interpolationmode none
attr source stateChanged
attr title "contention state, vector"
vector 341 World.node[27].wlan[0].mac.hcf.edca.edcaf[0].contention state:vector ETV
attr interpolationmode none
attr source stateChanged
attr title "contention state, vector"
vector 342 World.node[27].wlan[0].mac.hcf.edca.edcaf[1].contention state:vector ETV
attr interpolationmode none
attr source stateChanged
attr title "contention state, vector"
vector 343 World.node[27].wlan[0].mac.hcf.edca.edcaf[2].contention state:vector ETV
attr interpolationmode none
attr source stateChanged
attr title "contention state, vector"
vector 344 World.node[27].wlan[0].mac.hcf.edca.edcaf[3].contention state:vector ETV
attr interpolationmode none
attr source stateChanged
attr title "contention state, vector"
vector 345 World.node[28].wlan[0].radio radioMode:vector ETV
attr interpolationmode sample-hold
attr source radioModeChanged
attr title "Radio mode, vector"
vector 346 World.node[28].wlan[0].radio radioChannel:vector ETV
attr interpolationmode sample-hold
attr source radioChannelChanged
attr title "Radio channel, vector"
vector 347 World.node[28].wlan[0].radio receptionState:vector ETV
attr interpolationmode sample-hold
attr source receptionStateChanged
attr title "Radio reception state, vector"
vector 348 World.node[28].wlan[0].mac.dcf.channelAccess.contention state:vector ETV
attr interpolationmode none
attr source stateChanged
attr title "contention state, vector"
vector 349 World.node[28].wlan[0].mac.hcf.edca.edcaf[0].contention state:vector ETV
attr interpolationmode none
attr source stateChanged
attr title "contention state, vector"
vector 350 World.node[28].wlan[0].mac.hcf.edca.edcaf[1].contention state:vector ETV
attr interpolationmode none
attr source stateChanged
attr title "contention state, vector"
vector 351 World.node[28].wlan[0].mac.hcf.edca.edcaf[2].contention state:vector ETV
attr interpolationmode none
attr source stateChanged
attr title "contention state, vector"
vector 352 World.node[28].wlan[0].mac.hcf.edca.edcaf[3].contention state:vector ETV
attr interpolationmode none
attr source stateChanged
attr title "contention state, vector"
vector 353 World.node[27].wlan[0].mac rcvdPkFromLL:vector(packetBytes) ETV
attr interpolationmode none
attr source packetReceivedFromLower
attr title "packets received from lower layer, vector(packetBytes)"
vector 354 World.node[27].wlan[0].mac passedUpPk:vector(packetBytes) ETV
attr interpolationmode none
attr source packetSentToUpper
attr title "packets passed to higher layer, vector(packetBytes)"
vector 355 World.node[26].wlan[0].mac rcvdPkFromLL:vector(packetBytes) ETV
attr interpolationmode none
attr source packetReceivedFromLower
attr title "packets received from lower layer, vector(packetBytes)"
vector 356 World.node[26].wlan[0].mac passedUpPk:vector(packetBytes) ETV
attr interpolationmode none
attr source packetSentToUpper
attr title "packets passed to higher layer, vector(packetBytes)"
vector 357 World.node[28].wlan[0].mac rcvdPkFromLL:vector(packetBytes) ETV
attr interpolationmode none
attr source packetReceivedFromLower
attr title "packets received from lower layer, vector(packetBytes)"
vector 358 World.node[28].wlan[0].mac passedUpPk:vector(packetBytes) ETV
attr interpolationmode none
attr source packetSentToUpper
attr title "packets passed to higher layer, vector(packetBytes)"
vector 359 World.node[24].wlan[0].mac rcvdPkFromHL:vector(packetBytes) ETV
attr interpolationmode none
attr source packetReceivedFromUpper
attr title "packets received from higher layer, vector(packetBytes)"
vector 360 World.node[24].wlan[0].mac sentDownPk:vector(packetBytes) ETV
attr interpolationmode none
attr source packetSentToLower
attr title "packets sent to lower layer, vector(packetBytes)"
vector 361 World.node[24].wlan[0].radio transmissionState:vector ETV
attr interpolationmode sample-hold
attr source transmissionStateChanged
attr title "Radio transmission state, vector"
vector 362 World.node[25].wlan[0].mac rcvdPkFromHL:vector(packetBytes) ETV
attr interpolationmode none
attr source packetReceivedFromUpper
attr title "packets received from higher layer, vector(packetBytes)"
vector 363 World.node[25].wlan[0].mac sentDownPk:vector(packetBytes) ETV
attr interpolationmode none
attr source packetSentToLower
attr title "packets sent to lower layer, vector(packetBytes)"
vector 364 World.node[25].wlan[0].radio transmissionState:vector ETV
attr interpolationmode sample-hold
attr source transmissionStateChanged
attr title "Radio transmission state, vector"
vector 365 World.node[29].wlan[0].radio radioMode:vector ETV
attr interpolationmode sample-hold
attr source radioModeChanged
attr title "Radio mode, vector"
vector 366 World.node[29].wlan[0].radio radioChannel:vector ETV
attr interpolationmode sample-hold
attr source radioChannelChanged
attr title "Radio channel, vector"
vector 367 World.node[29].wlan[0].radio receptionState:vector ETV
attr interpolationmode sample-hold
attr source receptionStateChanged
attr title "Radio reception state, vector"
vector 368 World.node[29].wlan[0].mac.dcf.channelAccess.contention state:vector ETV
attr interpolationmode none
attr source stateChanged
attr title "contention state, vector"
vector 369 World.node[29].wlan[0].mac.hcf.edca.edcaf[0].contention state:vector ETV
attr interpolationmode none
attr source stateChanged
attr title "contention state, vector"
vector 370 World.node[29].wlan[0].mac.hcf.edca.edcaf[1].contention state:vector ETV
attr interpolationmode none
attr source stateChanged
attr title "contention state, vector"
vector 371 World.node[29].wlan[0].mac.hcf.edca.edcaf[2].contention state:vector ETV
attr interpolationmode none
attr source stateChanged
attr title "contention state, vector"
vector 372 World.node[29].wlan[0].mac.hcf.edca.edcaf[3].contention state:vector ETV
attr interpolationmode none
attr source stateChanged
attr title "contention state, vector"
vector 373 World.node[30].wlan[0].radio radioMode:vector ETV
attr interpolationmode sample-hold
attr source radioModeChanged
attr title "Radio mode, vector"
vector 374 World.node[30].wlan[0].radio radioChannel:vector ETV
attr interpolationmode sample-hold
attr source radioChannelChanged
attr title "Radio channel, vector"
vector 375 World.node[30].wlan[0].radio receptionState:vector ETV
attr interpolationmode sample-hold
attr source receptionStateChanged
attr title "Radio reception state, vector"
vector 376 World.node[30].wlan[0].mac.dcf.channelAccess.contention state:vector ETV
attr interpolationmode none
attr source stateChanged
attr title "contention state, vector"
vector 377 World.node[30].wlan[0].mac.hcf.edca.edcaf[0].contention state:vector ETV
attr interpolationmode none
attr source stateChanged
attr title "contention state, vector"
vector 378 World.node[30].wlan[0].mac.hcf.edca.edcaf[1].contention state:vector ETV
attr interpolationmode none
attr source stateChanged
attr title "contention state, vector"
vector 379 World.node[30].wlan[0].mac.hcf.edca.edcaf[2].contention state:vector ETV
attr interpolationmode none
attr source stateChanged
attr title "contention state, vector"
vector 380 World.node[30].wlan[0].mac.hcf.edca.edcaf[3].contention state:vector ETV
attr interpolationmode none
attr source stateChanged
attr title "contention state, vector"
vector 381 World.node[31].wlan[0].radio radioMode:vector ETV
attr interpolationmode sample-hold
attr source radioModeChanged
attr title "Radio mode, vector"
vector 382 World.node[31].wlan[0].radio radioChannel:vector ETV
attr interpolationmode sample-hold
attr source radioChannelChanged
attr title "Radio channel, vector"
vector 383 World.node[31].wlan[0].radio receptionState:vector ETV
attr interpolationmode sample-hold
attr source receptionStateChanged
attr title "Radio reception state, vector"
vector 384 World.node[31].wlan[0].mac.dcf.channelAccess.contention state:vector ETV
attr interpolationmode none
attr source stateChanged
attr title "contention state, vector"
vector 385 World.node[31].wlan[0].mac.hcf.edca.edcaf[0].contention state:vector ETV
attr interpolationmode none
attr source stateChanged
attr title "contention state, vector"
vector 386 World.node[31].wlan[0].mac.hcf.edca.edcaf[1].contention state:vector ETV
attr interpolationmode none
attr source stateChanged
attr title "contention state, vector"
vector 387 World.node[31].wlan[0].mac.hcf.edca.edcaf[2].contention state:vector ETV
attr interpolationmode none
attr source stateChanged
attr title "contention state, vector"
vector 388 World.node[31].wlan[0].mac.hcf.edca.edcaf[3].contention state:vector ETV
attr interpolationmode none
attr source stateChanged
attr title "contention state, vector"
vector 389 World.node[30].wlan[0].mac rcvdPkFromLL:vector(packetBytes) ETV
attr interpolationmode none
attr source packetReceivedFromLower
attr title "packets received from lower layer, vector(packetBytes)"
vector 390 World.node[30].wlan[0].mac passedUpPk:vector(packetBytes) ETV
attr interpolationmode none
attr source packetSentToUpper
attr title "packets passed to higher layer, vector(packetBytes)"
vector 391 World.node[31].wlan[0].mac rcvdPkFromLL:vector(packetBytes) ETV
attr interpolationmode none
attr source packetReceivedFromLower
attr title "packets received from lower layer, vector(packetBytes)"
vector 392 World.node[31].wlan[0].mac passedUpPk:vector(packetBytes) ETV
attr interpolationmode none
attr source packetSentToUpper
attr title "packets passed to higher layer, vector(packetBytes)"
vector 393 World.node[29].wlan[0].mac rcvdPkFromLL:vector(packetBytes) ETV
attr interpolationmode none
attr source packetReceivedFromLower
attr title "packets received from lower layer, vector(packetBytes)"
vector 394 World.node[29].wlan[0].mac passedUpPk:vector(packetBytes) ETV
attr interpolationmode none
attr source packetSentToUpper
attr title "packets passed to higher layer, vector(packetBytes)"
vector 395 World.node[28].wlan[0].mac rcvdPkFromHL:vector(packetBytes) ETV
attr interpolationmode none
attr source packetReceivedFromUpper
attr title "packets received from higher layer, vector(packetBytes)"
vector 396 World.node[28].wlan[0].mac sentDownPk:vector(packetBytes) ETV
attr interpolationmode none
attr source packetSentToLower
attr title "packets sent to lower layer, vector(packetBytes)"
vector 397 World.node[28].wlan[0].radio transmissionState:vector ETV
attr interpolationmode sample-hold
attr source transmissionStateChanged
attr title "Radio transmission state, vector"
vector 398 World.node[27].wlan[0].mac rcvdPkFromHL:vector(packetBytes) ETV
attr interpolationmode none
attr source packetReceivedFromUpper
attr title "packets received from higher layer, vector(packetBytes)"
vector 399 World.node[27].wlan[0].mac sentDownPk:vector(packetBytes) ETV
attr interpolationmode none
attr source packetSentToLower
attr title "packets sent to lower layer, vector(packetBytes)"
vector 400 World.node[27].wlan[0].radio transmissionState:vector ETV
attr interpolationmode sample-hold
attr source transmissionStateChanged
attr title "Radio transmission state, vector"
vector 401 World.node[26].wlan[0].mac rcvdPkFromHL:vector(packetBytes) ETV
attr interpolationmode none
attr source packetReceivedFromUpper
attr title "packets received from higher layer, vector(packetBytes)"
vector 402 World.node[26].wlan[0].mac sentDownPk:vector(packetBytes) ETV
attr interpolationmode none
attr source packetSentToLower
attr title "packets sent to lower layer, vector(packetBytes)"
vector 403 World.node[26].wlan[0].radio transmissionState:vector ETV
attr interpolationmode sample-hold
attr source transmissionStateChanged
attr title "Radio transmission state, vector"
vector 404 World.node[32].wlan[0].radio radioMode:vector ETV
attr interpolationmode sample-hold
attr source radioModeChanged
attr title "Radio mode, vector"
vector 405 World.node[32].wlan[0].radio radioChannel:vector ETV
attr interpolationmode sample-hold
attr source radioChannelChanged
attr title "Radio channel, vector"
vector 406 World.node[32].wlan[0].radio receptionState:vector ETV
attr interpolationmode sample-hold
attr source receptionStateChanged
attr title "Radio reception state, vector"
vector 407 World.node[32].wlan[0].mac.dcf.channelAccess.contention state:vector ETV
attr interpolationmode none
attr source stateChanged
attr title "contention state, vector"
vector 408 World.node[32].wlan[0].mac.hcf.edca.edcaf[0].contention state:vector ETV
attr interpolationmode none
attr source stateChanged
attr title "contention state, vector"
vector 409 World.node[32].wlan[0].mac.hcf.edca.edcaf[1].contention state:vector ETV
attr interpolationmode none
attr source stateChanged
attr title "contention state, vector"
vector 410 World.node[32].wlan[0].mac.hcf.edca.edcaf[2].contention state:vector ETV
attr interpolationmode none
attr source stateChanged
attr title "contention state, vector"
vector 411 World.node[32].wlan[0].mac.hcf.edca.edcaf[3].contention state:vector ETV
attr interpolationmode none
attr source stateChanged
attr title "contention state, vector"
vector 412 World.node[33].wlan[0].radio radioMode:vector ETV
attr interpolationmode sample-hold
attr source radioModeChanged
attr title "Radio mode, vector"
vector 413 World.node[33].wlan[0].radio radioChannel:vector ETV
attr interpolationmode sample-hold
attr source radioChannelChanged
attr title "Radio channel, vector"
vector 414 World.node[33].wlan[0].radio receptionState:vector ETV
attr interpolationmode sample-hold
attr source receptionStateChanged
attr title "Radio reception state, vector"
vector 415 World.node[33].wlan[0].mac.dcf.channelAccess.contention state:vector ETV
attr interpolationmode none
attr source stateChanged
attr title "contention state, vector"
vector 416 World.node[33].wlan[0].mac.hcf.edca.edcaf[0].contention state:vector ETV
attr interpolationmode none
attr source stateChanged
attr title "contention state, vector"
vector 417 World.node[33].wlan[0].mac.hcf.edca.edcaf[1].contention state:vector ETV
attr interpolationmode none
attr source stateChanged
attr title "contention state, vector"
vector 418 World.node[33].wlan[0].mac.hcf.edca.edcaf[2].contention state:vector ETV
attr interpolationmode none
attr source stateChanged
[...]
557	55951315 744 416555 539680 22.666585911415 24.966585911415 24 198 250 5376 1217744
558	55952059 744 416558 539683 22.666585911415 24.966585911415 24 198 250 5376 1217744
559	55952803 2784 416559 539744 22.666585911415 24.966897911415 96 0 2 96 144
560	55955587 116 441446 490683 23.062784009469 24.062919007625 4 2 3 10 26
562	55955703 22192 413482 548270 22.589319376359 25.032668914668 768 0 3 1530 3822
563	55977895 44384 413482 548270 22.589319376359 25.032668914668 1536 0 0 0 0
564	56022279 44384 413482 548270 22.589319376359 25.032668914668 1536 0 0 0 0
565	56066663 44616 413482 548270 22.589319376359 25.032668914668 1544 0 2 8 16
566	56111279 44384 413482 548270 22.589319376359 25.032668914668 1536 0 0 0 0
567	56155663 44384 413482 548270 22.589319376359 25.032668914668 1536 0 0 0 0
568	56200047 11802 413667 548271 22.589599376359 25.032668914668 382 116 250 60057 9942281
569	56211849 11802 413667 548271 22.589599376359 25.032668914668 382 116 250 60057 9942281
570	56223651 93 435397 546271 23.024606318329 25.024606318329 3 119 119 357 42483
571	56223744 93 435400 546274 23.024606318329 25.024606318329 3 119 119 357 42483
572	56223837 348 435401 546337 23.024606318329 25.024814318329 12 0 2 12 18
573	56224185 62 437748 486727 23.042408898706 24.042408898706 2 116 116 232 26912
574	56224247 62 437751 486730 23.042408898706 24.042408898706 2 116 116 232 26912
575	56224309 232 437752 486791 23.042408898706 24.042608898706 8 0 2 8 12
576	56224541 62 439425 488494 23.051730851317 24.051730851317 2 116 116 232 26912
577	56224603 62 439428 488497 23.051730851317 24.051730851317 2 116 116 232 26912
578	56224665 232 439429 488558 23.051730851317 24.051930851317 8 0 2 8 12
579	56224897 116 448163 497760 23.092234798009 24.092434798009 4 2 3 10 26
581	56225013 22215 413350 548210 22.589169791288 25.032668657035 769 0 3 1531 3823
582	56247228 44430 413350 548210 22.589169791288 25.032668657035 1538 0 0 0 0
583	56291658 44430 413350 548210 22.589169791288 25.032668657035 1538 0 0 0 0
584	56336088 44662 413350 548210 22.589169791288 25.032668657035 1546 0 2 8 16
585	56380750 44430 413350 548210 22.589169791288 25.032668657035 1538 0 0 0 0
586	56425180 44430 413350 548210 22.589169791288 25.032668657035 1538 0 0 0 0
587	56469610 116 440100 489265 23.054138079355 24.054338079355 4 2 3 10 26
589	56469726 22233 413420 548300 22.589170030947 25.032668971403 769 0 3 1531 3823
590	56491959 44466 413420 548300 22.589170030947 25.032668971403 1538 0 0 0 0
591	56536425 44466 413420 548300 22.589170030947 25.032668971403 1538 0 0 0 0
592	56580891 44698 413420 548300 22.589170030947 25.032668971403 1546 0 2 8 16
593	56625589 44466 413420 548300 22.589170030947 25.032668971403 1538 0 0 0 0
594	56670055 44466 413420 548300 22.589170030947 25.032668971403 1538 0 0 0 0
595	56714521 11839 413421 548301 22.589170030947 25.032668971403 383 116 250 60203 9963597
596	56726360 11839 413421 548301 22.589170030947 25.032668971403 383 116 250 60203 9963597
597	56738199 11830 413351 548211 22.589169791288 25.032668657035 383 116 250 60203 9963597
598	56750029 11830 413351 548211 22.589169791288 25.032668657035 383 116 250 60203 9963597
599	56761859 62 441442 490619 23.062563661765 24.062563661765 2 116 116 232 26912
600	56761921 62 441445 490622 23.062784009469 24.062719007625 2 116 116 232 26912
601	56761983 232 441446 490683 23.062784009469 24.062919007625 8 0 2 8 12
602	56762215 1450 415197 546702 22.626669687568 25.027013687568 50 2 3 125 325
604	56763665 22169 413285 548180 22.589169522583 25.032668487097 769 0 3 1462 3616
605	56785834 44338 413285 548180 22.589169522583 25.032668487097 1538 0 0 0 0
606	56830172 44338 413285 548180 22.589169522583 25.032668487097 1538 0 0 0 0
607	56874510 47238 413285 548180 22.589169522583 25.032668487097 1638 0 2 100 200
608	56921748 44338 413285 548180 22.589169522583 25.032668487097 1538 0 0 0 0
609	56966086 44338 413285 548180 22.589169522583 25.032668487097 1538 0 0 0 0
610	57010424 112 440437 489620 23.05640643537 24.05660643537 4 2 3 10 26
612	57010536 22213 413385 548260 22.589169987211 25.032668860716 769 0 3 1531 3823
613	57032749 44426 413385 548260 22.589169987211 25.032668860716 1538 0 0 0 0
614	57077175 44426 413385 548260 22.589169987211 25.032668860716 1538 0 0 0 0
615	57121601 44650 413385 548260 22.589169987211 25.032668860716 1546 0 2 8 16
616	57166251 44426 413385 548260 22.589169987211 25.032668860716 1538 0 0 0 0
617	57210677 44426 413385 548260 22.589169987211 25.032668860716 1538 0 0 0 0
618	57255103 116 448500 498468 23.095693297056 24.095893297056 4 2 3 10 26
620	57255219 22206 413487 548255 22.589319424272 25.032668860269 768 0 3 1530 3822
621	57277425 44412 413487 548255 22.589319424272 25.032668860269 1536 0 0 0 0
622	57321837 44412 413487 548255 22.589319424272 25.032668860269 1536 0 0 0 0
623	57366249 44644 413487 548255 22.589319424272 25.032668860269 1544 0 2 8 16
624	57410893 44412 413487 548255 22.589319424272 25.032668860269 1536 0 0 0 0
625	57455305 44412 413487 548255 22.589319424272 25.032668860269 1536 0 0 0 0
626	57499717 11831 413386 548261 22.589169987211 25.032668860716 383 116 250 60203 9963597
627	57511548 11831 413386 548261 22.589169987211 25.032668860716 383 116 250 60203 9963597
628	57523379 11094 413286 548181 22.589169522583 25.032668487097 360 116 250 55667 9070989
629	57534473 11094 413286 548181 22.589169522583 25.032668487097 360 116 250 55667 9070989
630	57545567 11809 413692 548256 22.589599424272 25.032668860269 382 116 250 60057 9942281
631	57557376 11809 413692 548256 22.589599424272 25.032668860269 382 116 250 60057 9942281
632	57569185 62 440096 489201 23.054138079355 24.054138079355 2 116 116 232 26912
633	57569247 62 440099 489204 23.054138079355 24.054138079355 2 116 116 232 26912
634	57569309 232 440100 489265 23.054138079355 24.054338079355 8 0 2 8 12
635	57569541 62 448159 497696 23.092234798009 24.092234798009 2 116 116 232 26912
636	57569603 62 448162 497699 23.092234798009 24.092234798009 2 116 116 232 26912
637	57569665 232 448163 497760 23.092234798009 24.092434798009 8 0 2 8 12
638	57569897 775 415193 546636 22.626669687568 25.026669687568 25 146 224 4768 919520
639	57570672 775 415196 546639 22.626669687568 25.026669687568 25 146 224 4768 919520
640	57571447 2900 415197 546702 22.626669687568 25.027013687568 100 0 2 100 150
641	57574347 1392 417578 540820 22.688928731694 24.989240731694 48 2 3 120 312
643	57575739 22170 413499 548280 22.589319641842 25.032668936617 768 0 3 1464 3624
644	57597909 44340 413499 548280 22.589319641842 25.032668936617 1536 0 0 0 0
645	57642249 44340 413499 548280 22.589319641842 25.032668936617 1536 0 0 0 0
646	57686589 47124 413499 548280 22.589319641842 25.032668936617 1632 0 2 96 192
647	57733713 44340 413499 548280 22.589319641842 25.032668936617 1536 0 0 0 0
648	57778053 44340 413499 548280 22.589319641842 25.032668936617 1536 0 0 0 0
649	57822393 112 443459 492804 23.06821189539 24.06841989539 4 2 3 10 26
651	57822505 22225 413340 548325 22.589169694809 25.032669018666 769 0 3 1531 3823
652	57844730 44450 413340 548325 22.589169694809 25.032669018666 1538 0 0 0 0
653	57889180 44450 413340 548325 22.589169694809 25.032669018666 1538 0 0 0 0
654	57933630 44674 413340 548325 22.589169694809 25.032669018666 1546 0 2 8 16
655	57978304 44450 413340 548325 22.589169694809 25.032669018666 1538 0 0 0 0
656	58022754 44450 413340 548325 22.589169694809 25.032669018666 1538 0 0 0 0
657	58067204 1450 413448 541169 22.589318686768 24.989630564285 50 2 3 125 325
659	58068654 22213 413335 548390 22.589169686768 25.032669119362 769 0 3 1462 3616
660	58090867 44426 413335 548390 22.589169686768 25.032669119362 1538 0 0 0 0
661	58135293 44426 413335 548390 22.589169686768 25.032669119362 1538 0 0 0 0
662	58179719 47268 413335 548390 22.589169686768 25.032669119362 1636 0 2 149 249
663	58226987 44426 413335 548390 22.589169686768 25.032669119362 1538 0 0 0 0
664	58271413 44426 413335 548390 22.589169686768 25.032669119362 1538 0 0 0 0
665	58315839 174 432041 541946 23.000120757218 25.000320757218 6 2 3 15 39
667	58316013 22156 413430 548159 22.589170034255 25.032469260928 768 0 3 1527 3813
668	58338169 44312 413430 548159 22.589170034255 25.032469260928 1536 0 0 0 0
669	58382481 44312 413430 548159 22.589170034255 25.032469260928 1536 0 0 0 0
670	58426793 44660 413430 548159 22.589170034255 25.032469260928 1548 0 2 12 24
671	58471453 44312 413430 548159 22.589170034255 25.032469260928 1536 0 0 0 0
672	58515765 44312 413430 548159 22.589170034255 25.032469260928 1536 0 0 0 0
673	58560077 11837 413341 548326 22.589169694809 25.032669018666 383 116 250 60197 9962187
674	58571914 11837 413341 548326 22.589169694809 25.032669018666 383 116 250 60197 9962187
675	58583751 11753 413431 548080 22.589170034255 25.030358669258 381 116 250 59971 9936685
676	58595504 11753 413431 548080 22.589170034255 25.030358669258 381 116 250 59971 9936685
677	58607257 11116 413336 548391 22.589169686768 25.032669119362 360 116 250 56655 9416269
678	58618373 11116 413336 548391 22.589169686768 25.032669119362 360 116 250 56655 9416269
679	58629489 11109 413752 548281 22.589599641842 25.032668936617 360 116 250 56265 9278729
680	58640598 11109 413752 548281 22.589599641842 25.032668936617 360 116 250 56265 9278729
681	58651707 60 440433 489556 23.05640643537 24.05640643537 2 116 116 232 26912
682	58651767 60 440436 489559 23.05640643537 24.05640643537 2 116 116 232 26912
683	58651827 224 440437 489620 23.05640643537 24.05660643537 8 0 2 8 12
684	58652051 62 448496 498404 23.095693297056 24.095693297056 2 116 116 232 26912
685	58652113 62 448499 498407 23.095693297056 24.095693297056 2 116 116 232 26912
686	58652175 232 448500 498468 23.095693297056 24.095893297056 8 0 2 8 12
687	58652407 744 417574 540752 22.688928731694 24.988928731694 24 146 198 4024 690464
688	58653151 744 417577 540755 22.688928731694 24.988928731694 24 146 198 4024 690464
689	58653895 2784 417578 540820 22.688928731694 24.989240731694 96 0 2 96 144
690	58656679 744 417637 540818 22.689131435147 24.989131435147 24 146 172 3608 544656
691	58657423 775 413447 541108 22.589318686768 24.989390564285 25 146 172 3780 574240
692	58658198 2900 413448 541169 22.589318686768 24.989630564285 100 0 2 100 150
695	58661098 22170 413501 548305 22.589319688155 25.032668976526 768 1 3 1536 3840
696	58683268 44340 413501 548305 22.589319688155 25.032668976526 1536 0 0 0 0
697	58727608 44340 413501 548305 22.589319688155 25.032668976526 1536 0 0 0 0
698	58771948 44340 413501 548305 22.589319688155 25.032668976526 1536 0 0 0 0
699	58816288 44340 413501 548305 22.589319688155 25.032668976526 1536 0 0 0 0
700	58860628 44340 413501 548305 22.589319688155 25.032668976526 1536 0 0 0 0
701	58904968 116 438424 487499 23.045850316971 24.046050316971 4 2 3 10 26
703	58905084 22256 413503 548205 22.589319714327 25.032668655745 768 0 3 1530 3822
704	58927340 44512 413503 548205 22.589319714327 25.032668655745 1536 0 0 0 0
705	58971852 44512 413503 548205 22.589319714327 25.032668655745 1536 0 0 0 0
706	59016364 44744 413503 548205 22.589319714327 25.032668655745 1544 0 2 8 16
707	59061108 44512 413503 548205 22.589319714327 25.032668655745 1536 0 0 0 0
708	59105620 44512 413503 548205 22.589319714327 25.032668655745 1536 0 0 0 0
709	59150132 112 438089 487146 23.04445872854 24.04465872854 4 2 3 10 26
711	59150244 22151 413435 548365 22.589170035406 25.032669066952 769 0 3 1531 3823
712	59172395 44302 413435 548365 22.589170035406 25.032669066952 1538 0 0 0 0
713	59216697 44302 413435 548365 22.589170035406 25.032669066952 1538 0 0 0 0
714	59260999 44526 413435 548365 22.589170035406 25.032669066952 1546 0 2 8 16
715	59305525 44302 413435 548365 22.589170035406 25.032669066952 1538 0 0 0 0
716	59349827 44302 413435 548365 22.589170035406 25.032669066952 1538 0 0 0 0
717	59394129 93 432037 541880 23.000120757218 25.000120757218 3 116 116 348 40368
718	59394222 93 432040 541883 23.000120757218 25.000120757218 3 116 116 348 40368
719	59394315 348 432041 541946 23.000120757218 25.000320757218 12 0 2 12 18
720	59394663 11800 413436 548366 22.589170035406 25.032669066952 383 116 250 60203 9963597
721	59406463 11800 413436 548366 22.589170035406 25.032669066952 383 116 250 60203 9963597
722	59418263 11834 413772 548206 22.589599714327 25.032668655745 382 116 250 60057 9942281
723	59430097 11834 413772 548206 22.589599714327 25.032668655745 382 116 250 60057 9942281
724	59441931 11853 413762 548306 22.589599688155 25.032668976526 384 116 250 60289 9969193
725	59453784 11853 413762 548306 22.589599688155 25.032668976526 384 116 250 60289 9969193
726	59465637 60 443455 492740 23.06821189539 24.06821189539 2 119 119 238 28322
727	59465697 60 443458 492743 23.06821189539 24.06821189539 2 119 119 238 28322
728	59465757 224 443459 492804 23.06821189539 24.06841989539 8 0 2 8 12
729	59465981 116 449172 499176 23.097291174438 24.097491174438 4 2 3 10 26
731	59466097 22233 413275 548165 22.589169486112 25.032668330288 769 0 3 1531 3823
732	59488330 44466 413275 548165 22.589169486112 25.032668330288 1538 0 0 0 0
733	59532796 44466 413275 548165 22.589169486112 25.032668330288 1538 0 0 0 0
734	59577262 44698 413275 548165 22.589169486112 25.032668330288 1546 0 2 8 16
735	59621960 44466 413275 548165 22.589169486112 25.032668330288 1538 0 0 0 0
736	59666426 44466 413275 548165 22.589169486112 25.032668330288 1538 0 0 0 0
737	59710892 116 446487 495994 23.087436935101 24.087701932349 4 2 3 10 26
739	59711008 22219 413405 548315 22.589170010813 25.032669008293 769 0 3 1531 3823
740	59733227 44438 413405 548315 22.589170010813 25.032669008293 1538 0 0 0 0
741	59777665 44438 413405 548315 22.589170010813 25.032669008293 1538 0 0 0 0
742	59822103 44670 413405 548315 22.589170010813 25.032669008293 1546 0 2 8 16
743	59866773 44438 413405 548315 22.589170010813 25.032669008293 1538 0 0 0 0
744	59911211 44438 413405 548315 22.589170010813 25.032669008293 1538 0 0 0 0
745	59955649 11832 413406 548316 22.589170010813 25.032669008293 383 116 250 60203 9963597
746	59967481 11832 413406 548316 22.589170010813 25.032669008293 383 116 250 60203 9963597
747	59979313 11839 413276 548166 22.589169486112 25.032668330288 383 116 250 60203 9963597
748	59991152 11839 413276 548166 22.589169486112 25.032668330288 383 116 250 60203 9963597
749	60002991 60 438085 487082 23.04445872854 24.04445872854 2 116 116 232 26912
750	60003051 60 438088 487085 23.04445872854 24.04445872854 2 116 116 232 26912
751	60003111 224 438089 487146 23.04445872854 24.04465872854 8 0 2 8 12
752	60003335 62 438420 487435 23.045850316971 24.045850316971 2 116 116 232 26912
753	60003397 62 438423 487438 23.045850316971 24.045850316971 2 116 116 232 26912
754	60003459 232 438424 487499 23.045850316971 24.046050316971 8 0 2 8 12
755	60003691 90 431978 498113 23 24.093429531287 4 0 3 7 17
756	60003781 18 431978 431978 23 23 1 180 180 180 32400
757	60003799 19054 431978 548170 23 25.032668347214 661 0 3 1318 3292
758	60022853 38108 431978 548170 23 25.032668347214 1322 0 0 0 0
759	60060961 38108 431978 548170 23 25.032668347214 1322 0 0 0 0
760	60099069 38224 431978 548170 23 25.032668347214 1326 0 2 4 8
761	60137293 38108 431978 548170 23 25.032668347214 1322 0 0 0 0
762	60175401 38108 431978 548170 23 25.032668347214 1322 0 0 0 0
763	60213509 10148 432295 548171 23.000321699349 25.032668347214 329 116 250 51119 8378533
764	60223657 10148 432295 548171 23.000321699349 25.032668347214 329 116 250 51119 8378533
765	60233805 62 446483 495930 23.087230251078 24.087230251078 2 116 116 232 26912
766	60233867 62 446486 495933 23.087436935101 24.087501932349 2 116 116 232 26912
767	60233929 232 446487 495994 23.087436935101 24.087701932349 8 0 2 8 12
768	60234161 62 449168 499112 23.097291174438 24.097291174438 2 116 116 232 26912
769	60234223 62 449171 499115 23.097291174438 24.097291174438 2 116 116 232 26912
770	60234285 232 449172 499176 23.097291174438 24.097491174438 8 0 2 8 12
771	60234517 612 480648 544871 24 25.012668889377 22 0 3 52 134
772	60235129 18 480648 480648 24 24 1 180 180 180 32400
773	60235147 10874 480648 548410 24 25.032669180283 377 0 3 723 1791
774	60246021 21748 480648 548410 24 25.032669180283 754 0 0 0 0
775	60267769 21748 480648 548410 24 25.032669180283 754 0 0 0 0
776	60289517 22908 480648 548410 24 25.032669180283 794 0 2 40 80
777	60312425 21748 480648 548410 24 25.032669180283 754 0 0 0 0
778	60334173 21748 480648 548410 24 25.032669180283 754 0 0 0 0
779	60355921 90 480648 545970 24 25.022529166858 4 0 3 7 17
780	60356011 18 480648 480648 24 24 1 180 180 180 32400
781	60356029 10860 480648 548245 24 25.032668841799 377 0 3 750 1872
782	60366889 21720 480648 548245 24 25.032668841799 754 0 0 0 0
783	60388609 21720 480648 548245 24 25.032668841799 754 0 0 0 0
784	60410329 21836 480648 548245 24 25.032668841799 758 0 2 4 8
785	60432165 21720 480648 548245 24 25.032668841799 754 0 0 0 0
786	60453885 21720 480648 548245 24 25.032668841799 754 0 0 0 0
787	60475605 32 480648 480648 24 24 2 0 2 2 4
788	60475637 18 480648 480648 24 24 1 180 180 180 32400
789	60475655 10884 480648 548225 24 25.032668748292 377 1 3 753 1881
790	60486539 21768 480648 548225 24 25.032668748292 754 0 0 0 0
791	60508307 21768 480648 548225 24 25.032668748292 754 0 0 0 0
792	60530075 21768 480648 548225 24 25.032668748292 754 0 0 0 0
793	60551843 21768 480648 548225 24 25.032668748292 754 0 0 0 0
794	60573611 21768 480648 548225 24 25.032668748292 754 0 0 0 0
795	60595379 5495 480856 548411 24.000321204163 25.032669180283 178 116 250 27416 4431052
796	60600874 5495 480856 548411 24.000321204163 25.032669180283 178 116 250 27416 4431052
797	60606369 5767 480931 548246 24.000321522488 25.032668841799 187 116 250 28760 4630756
798	60612136 5767 480931 548246 24.000321522488 25.032668841799 187 116 250 28760 4630756
799	60617903 5810 480986 548226 24.000321694945 25.032668748292 188 116 250 28876 4644212
800	60623713 5810 480986 548226 24.000321694945 25.032668748292 188 116 250 28876 4644212
801	60629523 31 498049 498049 24.093229531287 24.093229531287 1 116 116 116 13456
802	60629554 31 498052 498052 24.093229531287 24.093229531287 1 116 116 116 13456
803	60629585 116 498053 498113 24.093229531287 24.093429531287 4 0 2 4 6
804	60629701 310 500247 544804 24.112428889377 25.012428889377 10 146 146 1460 213160
805	60630011 310 500250 544807 24.112428889377 25.012428889377 10 146 146 1460 213160
806	60630321 1160 500251 544871 24.112428889377 25.012668889377 40 0 2 40 60
807	60631481 32 541816 541816 25 25 2 0 2 2 4
808	60631513 18 541816 541816 25 25 1 180 180 180 32400
809	60631531 1054 541816 548290 25 25.032668948258 37 1 3 73 181
810	60632585 2108 541816 548290 25 25.032668948258 74 0 0 0 0
811	60634693 2108 541816 548290 25 25.032668948258 74 0 0 0 0
812	60636801 2108 541816 548290 25 25.032668948258 74 0 0 0 0
813	60638909 2108 541816 548290 25 25.032668948258 74 0 0 0 0
814	60641017 2108 541816 548290 25 25.032668948258 74 0 0 0 0
815	60643125 32 541816 541816 25 25 2 0 2 2 4
816	60643157 18 541816 541816 25 25 1 180 180 180 32400
817	60643175 1031 541816 548161 25 25.032469278915 36 1 3 72 180
818	60644206 2062 541816 548161 25 25.032469278915 72 0 0 0 0
819	60646268 2062 541816 548161 25 25.032469278915 72 0 0 0 0
820	60648330 2062 541816 548161 25 25.032469278915 72 0 0 0 0
821	60650392 2062 541816 548161 25 25.032469278915 72 0 0 0 0
822	60652454 2062 541816 548161 25 25.032469278915 72 0 0 0 0
823	60654516 527 541948 548090 25.000320781999 25.030358690235 17 116 250 2289 333761
824	60655043 527 541948 548090 25.000320781999 25.030358690235 17 116 250 2289 333761
825	60655570 555 542213 548291 25.000321785801 25.032668948258 18 116 250 2405 347217
826	60656125 555 542213 548291 25.000321785801 25.032668948258 18 116 250 2405 347217
827	60656680 31 545904 545904 25.022329166858 25.022329166858 1 116 116 116 13456
828	60656711 31 545907 545907 25.022329166858 25.022329166858 1 116 116 116 13456
829	60656742 116 545908 545970 25.022329166858 25.022529166858 4 0 2 4 6
