version 2
run envmod-0-20220222-10:40:04-71714
attr configname envmod
attr datetime 20220222-10:40:04
attr experiment envmod
attr inifile omnetpp.ini
attr iterationvars ""
attr iterationvarsf ""
attr measurement ""
attr network artery.envmod.World
attr processid 71714
attr repetition 0
attr replication #0
attr resultdir results
attr runnumber 0
attr seedset 0
param *.traci.mapper.vehicleType "\"artery.envmod.Car\""
param *.node[*].middleware.services "xmldoc(\"services-envmod.xml\")"
param *.node[*].environmentModel.sensors "xmldoc(\"sensors.xml\")"
param *.node[4].environmentModel.FrontRadar.fovRange "200.0 m"
param *.node[4].environmentModel.FrontRadar.fovAngle 20.0
param *.traci.core.version -1
param *.traci.launcher.typename "\"PosixLauncher\""
param *.traci.launcher.sumocfg "\"highway.sumocfg\""
param *.node[*].middleware.updateInterval 0.1s
param *.node[*].middleware.datetime "\"2018-03-19 10:00:00\""
param *.node[*].middleware.services "xmldoc(\"services.xml\")"

vector 0 World.node[0].wlan[0].radio radioMode:vector ETV
attr interpolationmode sample-hold
attr source radioModeChanged
attr title "Radio mode, vector"
vector 1 World.node[0].wlan[0].radio radioChannel:vector ETV
attr interpolationmode sample-hold
attr source radioChannelChanged
attr title "Radio channel, vector"
vector 2 World.node[0].wlan[0].radio receptionState:vector ETV
attr interpolationmode sample-hold
attr source receptionStateChanged
attr title "Radio reception state, vector"
vector 3 World.node[0].wlan[0].mac.dcf.channelAccess.contention state:vector ETV
attr interpolationmode none
attr source stateChanged
attr title "contention state, vector"
vector 4 World.node[0].wlan[0].mac.hcf.edca.edcaf[0].contention state:vector ETV
attr interpolationmode none
attr source stateChanged
attr title "contention state, vector"
vector 5 World.node[0].wlan[0].mac.hcf.edca.edcaf[1].contention state:vector ETV
attr interpolationmode none
attr source stateChanged
attr title "contention state, vector"
vector 6 World.node[0].wlan[0].mac.hcf.edca.edcaf[2].contention state:vector ETV
attr interpolationmode none
attr source stateChanged
attr title "contention state, vector"
vector 7 World.node[0].wlan[0].mac.hcf.edca.edcaf[3].contention state:vector ETV
attr interpolationmode none
attr source stateChanged
attr title "contention state, vector"
vector 8 World.node[1].wlan[0].radio radioMode:vector ETV
attr interpolationmode sample-hold
attr source radioModeChanged
attr title "Radio mode, vector"
vector 9 World.node[1].wlan[0].radio radioChannel:vector ETV
attr interpolationmode sample-hold
attr source radioChannelChanged
attr title "Radio channel, vector"
vector 10 World.node[1].wlan[0].radio receptionState:vector ETV
attr interpolationmode sample-hold
attr source receptionStateChanged
attr title "Radio reception state, vector"
vector 11 World.node[1].wlan[0].mac.dcf.channelAccess.contention state:vector ETV
attr interpolationmode none
attr source stateChanged
attr title "contention state, vector"
vector 12 World.node[1].wlan[0].mac.hcf.edca.edcaf[0].contention state:vector ETV
attr interpolationmode none
attr source stateChanged
attr title "contention state, vector"
vector 13 World.node[1].wlan[0].mac.hcf.edca.edcaf[1].contention state:vector ETV
attr interpolationmode none
attr source stateChanged
attr title "contention state, vector"
vector 14 World.node[1].wlan[0].mac.hcf.edca.edcaf[2].contention state:vector ETV
attr interpolationmode none
attr source stateChanged
attr title "contention state, vector"
vector 15 World.node[1].wlan[0].mac.hcf.edca.edcaf[3].contention state:vector ETV
attr interpolationmode none
attr source stateChanged
attr title "contention state, vector"
vector 16 World.node[2].wlan[0].radio radioMode:vector ETV
attr interpolationmode sample-hold
attr source radioModeChanged
attr title "Radio mode, vector"
vector 17 World.node[2].wlan[0].radio radioChannel:vector ETV
attr interpolationmode sample-hold
attr source radioChannelChanged
attr title "Radio channel, vector"
vector 18 World.node[2].wlan[0].radio receptionState:vector ETV
attr interpolationmode sample-hold
attr source receptionStateChanged
attr title "Radio reception state, vector"
vector 19 World.node[2].wlan[0].mac.dcf.channelAccess.contention state:vector ETV
attr interpolationmode none
attr source stateChanged
attr title "contention state, vector"
vector 20 World.node[2].wlan[0].mac.hcf.edca.edcaf[0].contention state:vector ETV
attr interpolationmode none
attr source stateChanged
attr title "contention state, vector"
vector 21 World.node[2].wlan[0].mac.hcf.edca.edcaf[1].contention state:vector ETV
attr interpolationmode none
attr source stateChanged
attr title "contention state, vector"
vector 22 World.node[2].wlan[0].mac.hcf.edca.edcaf[2].contention state:vector ETV
attr interpolationmode none
attr source stateChanged
attr title "contention state, vector"
vector 23 World.node[2].wlan[0].mac.hcf.edca.edcaf[3].contention state:vector ETV
attr interpolationmode none
attr source stateChanged
attr title "contention state, vector"
vector 24 World.node[0].wlan[0].mac rcvdPkFromHL:vector(packetBytes) ETV
attr interpolationmode none
attr source packetReceivedFromUpper
attr title "packets received from higher layer, vector(packetBytes)"
vector 25 World.node[1].wlan[0].mac rcvdPkFromHL:vector(packetBytes) ETV
attr interpolationmode none
attr source packetReceivedFromUpper
attr title "packets received from higher layer, vector(packetBytes)"
vector 26 World.node[2].wlan[0].mac rcvdPkFromHL:vector(packetBytes) ETV
attr interpolationmode none
attr source packetReceivedFromUpper
attr title "packets received from higher layer, vector(packetBytes)"
vector 27 World.node[0].wlan[0].mac sentDownPk:vector(packetBytes) ETV
attr interpolationmode none
attr source packetSentToLower
attr title "packets sent to lower layer, vector(packetBytes)"
vector 28 World.node[0].wlan[0].radio transmissionState:vector ETV
attr interpolationmode sample-hold
attr source transmissionStateChanged
attr title "Radio transmission state, vector"
vector 29 World.node[1].wlan[0].mac sentDownPk:vector(packetBytes) ETV
attr interpolationmode none
attr source packetSentToLower
attr title "packets sent to lower layer, vector(packetBytes)"
vector 30 World.node[1].wlan[0].radio transmissionState:vector ETV
attr interpolationmode sample-hold
attr source transmissionStateChanged
attr title "Radio transmission state, vector"
vector 31 World.node[2].wlan[0].mac sentDownPk:vector(packetBytes) ETV
attr interpolationmode none
attr source packetSentToLower
attr title "packets sent to lower layer, vector(packetBytes)"
vector 32 World.node[2].wlan[0].radio transmissionState:vector ETV
attr interpolationmode sample-hold
attr source transmissionStateChanged
attr title "Radio transmission state, vector"
vector 33 World.node[3].wlan[0].radio radioMode:vector ETV
attr interpolationmode sample-hold
attr source radioModeChanged
attr title "Radio mode, vector"
vector 34 World.node[3].wlan[0].radio radioChannel:vector ETV
attr interpolationmode sample-hold
attr source radioChannelChanged
attr title "Radio channel, vector"
vector 35 World.node[3].wlan[0].radio receptionState:vector ETV
attr interpolationmode sample-hold
attr source receptionStateChanged
attr title "Radio reception state, vector"
vector 36 World.node[3].wlan[0].mac.dcf.channelAccess.contention state:vector ETV
attr interpolationmode none
attr source stateChanged
attr title "contention state, vector"
vector 37 World.node[3].wlan[0].mac.hcf.edca.edcaf[0].contention state:vector ETV
attr interpolationmode none
attr source stateChanged
attr title "contention state, vector"
vector 38 World.node[3].wlan[0].mac.hcf.edca.edcaf[1].contention state:vector ETV
attr interpolationmode none
attr source stateChanged
attr title "contention state, vector"
vector 39 World.node[3].wlan[0].mac.hcf.edca.edcaf[2].contention state:vector ETV
attr interpolationmode none
attr source stateChanged
attr title "contention state, vector"
vector 40 World.node[3].wlan[0].mac.hcf.edca.edcaf[3].contention state:vector ETV
attr interpolationmode none
attr source stateChanged
attr title "contention state, vector"
vector 41 World.node[3].wlan[0].mac rcvdPkFromHL:vector(packetBytes) ETV
attr interpolationmode none
attr source packetReceivedFromUpper
attr title "packets received from higher layer, vector(packetBytes)"
vector 42 World.node[3].wlan[0].mac sentDownPk:vector(packetBytes) ETV
attr interpolationmode none
attr source packetSentToLower
attr title "packets sent to lower layer, vector(packetBytes)"
vector 43 World.node[3].wlan[0].radio transmissionState:vector ETV
attr interpolationmode sample-hold
attr source transmissionStateChanged
attr title "Radio transmission state, vector"
vector 44 World.node[2].wlan[0].mac rcvdPkFromLL:vector(packetBytes) ETV
attr interpolationmode none
attr source packetReceivedFromLower
attr title "packets received from lower layer, vector(packetBytes)"
vector 45 World.node[2].wlan[0].mac passedUpPk:vector(packetBytes) ETV
attr interpolationmode none
attr source packetSentToUpper
attr title "packets passed to higher layer, vector(packetBytes)"
vector 46 World.node[1].wlan[0].mac rcvdPkFromLL:vector(packetBytes) ETV
attr interpolationmode none
attr source packetReceivedFromLower
attr title "packets received from lower layer, vector(packetBytes)"
vector 47 World.node[1].wlan[0].mac passedUpPk:vector(packetBytes) ETV
attr interpolationmode none
attr source packetSentToUpper
attr title "packets passed to higher layer, vector(packetBytes)"
vector 48 World.node[0].wlan[0].mac rcvdPkFromLL:vector(packetBytes) ETV
attr interpolationmode none
attr source packetReceivedFromLower
attr title "packets received from lower layer, vector(packetBytes)"
vector 49 World.node[0].wlan[0].mac passedUpPk:vector(packetBytes) ETV
attr interpolationmode none
attr source packetSentToUpper
attr title "packets passed to higher layer, vector(packetBytes)"
vector 50 World.node[3].wlan[0].mac rcvdPkFromLL:vector(packetBytes) ETV
attr interpolationmode none
attr source packetReceivedFromLower
attr title "packets received from lower layer, vector(packetBytes)"
vector 51 World.node[3].wlan[0].mac passedUpPk:vector(packetBytes) ETV
attr interpolationmode none
attr source packetSentToUpper
attr title "packets passed to higher layer, vector(packetBytes)"
50	797	6.616404195822	74
50	1339	9.870431052284	74
50	2444	13.156024044587	74
50	3559	16.196052286415	74
50	4063	19.248211544429	74
50	4561	22.280081794436	74
42	313	3.689177300176	122
42	387	4.189177300176	122
42	461	4.689177300176	122
42	535	5.189177300176	122
42	609	5.689177300176	122
42	683	6.189177300176	122
42	811	6.689177300176	122
42	885	7.189177300176	122
42	959	7.689177300176	122
42	1033	8.189177300176	122
42	1107	8.689177300176	122
42	1181	9.189177300176	122
42	1255	9.689177300176	122
42	1383	10.189177300176	122
42	1457	10.689177300176	122
42	1495	10.789177300176	122
42	1533	10.889177300176	122
42	1571	10.989177300176	122
42	1609	11.089177300176	122
42	1647	11.189177300176	122
42	1685	11.289177300176	122
42	1723	11.389177300176	122
42	1761	11.489177300176	122
42	1799	11.589177300176	122
42	1837	11.689177300176	122
42	1875	11.789177300176	122
42	1913	11.889177300176	122
42	1951	11.989177300176	122
42	1989	12.089177300176	122
42	2027	12.189177300176	122
42	2065	12.289177300176	122
42	2103	12.389177300176	122
42	2141	12.489177300176	122
42	2179	12.589177300176	122
42	2217	12.689177300176	122
42	2255	12.789177300176	122
42	2293	12.889177300176	122
42	2331	12.989177300176	122
42	2369	13.089177300176	122
42	2463	13.189177300176	122
42	2501	13.289177300176	122
42	2539	13.389177300176	122
42	2577	13.489177300176	122
42	2615	13.589177300176	122
42	2653	13.689177300176	122
42	2691	13.789177300176	122
42	2729	13.889177300176	122
42	2767	13.989177300176	122
42	2805	14.089177300176	122
42	2843	14.189177300176	122
42	2881	14.289177300176	122
42	2919	14.389177300176	122
42	2957	14.489177300176	122
42	2995	14.589177300176	122
42	3033	14.689177300176	122
42	3071	14.789177300176	122
42	3109	14.889177300176	122
42	3147	14.989177300176	122
42	3185	15.089177300176	122
42	3223	15.189177300176	122
42	3261	15.289177300176	122
42	3299	15.389177300176	122
42	3337	15.489177300176	122
42	3375	15.589177300176	122
42	3413	15.689177300176	122
42	3487	16.189177300176	122
42	3614	16.689177300176	122
42	3688	17.189177300176	122
42	3762	17.689177300176	122
42	3836	18.189177300176	122
42	3910	18.689177300176	122
42	3984	19.189177300176	122
42	4111	19.689177300176	122
42	4185	20.189177300176	122
42	4259	20.689177300176	122
42	4333	21.189177300176	122
42	4407	21.689177300176	122
42	4481	22.189177300176	122
42	4608	22.689177300176	122
42	4682	23.189177300176	122
42	4756	23.689177300176	122
42	4830	24.189177300176	122
42	4896	24.689177300176	122
41	310	3.689177300176	122
41	384	4.189177300176	122
41	458	4.689177300176	122
41	532	5.189177300176	122
41	606	5.689177300176	122
41	680	6.189177300176	122
41	808	6.689177300176	122
41	882	7.189177300176	122
41	956	7.689177300176	122
41	1030	8.189177300176	122
41	1104	8.689177300176	122
41	1178	9.189177300176	122
41	1252	9.689177300176	122
41	1380	10.189177300176	122
41	1454	10.689177300176	122
41	1492	10.789177300176	122
41	1530	10.889177300176	122
41	1568	10.989177300176	122
41	1606	11.089177300176	122
41	1644	11.189177300176	122
41	1682	11.289177300176	122
41	1720	11.389177300176	122
41	1758	11.489177300176	122
41	1796	11.589177300176	122
41	1834	11.689177300176	122
41	1872	11.789177300176	122
41	1910	11.889177300176	122
41	1948	11.989177300176	122
41	1986	12.089177300176	122
41	2024	12.189177300176	122
41	2062	12.289177300176	122
41	2100	12.389177300176	122
41	2138	12.489177300176	122
41	2176	12.589177300176	122
41	2214	12.689177300176	122
41	2252	12.789177300176	122
41	2290	12.889177300176	122
41	2328	12.989177300176	122
41	2366	13.089177300176	122
41	2460	13.189177300176	122
41	2498	13.289177300176	122
41	2536	13.389177300176	122
41	2574	13.489177300176	122
41	2612	13.589177300176	122
41	2650	13.689177300176	122
41	2688	13.789177300176	122
41	2726	13.889177300176	122
41	2764	13.989177300176	122
41	2802	14.089177300176	122
41	2840	14.189177300176	122
41	2878	14.289177300176	122
41	2916	14.389177300176	122
41	2954	14.489177300176	122
41	2992	14.589177300176	122
41	3030	14.689177300176	122
41	3068	14.789177300176	122
41	3106	14.889177300176	122
41	3144	14.989177300176	122
41	3182	15.089177300176	122
41	3220	15.189177300176	122
41	3258	15.289177300176	122
41	3296	15.389177300176	122
41	3334	15.489177300176	122
41	3372	15.589177300176	122
41	3410	15.689177300176	122
41	3484	16.189177300176	122
41	3611	16.689177300176	122
41	3685	17.189177300176	122
41	3759	17.689177300176	122
41	3833	18.189177300176	122
41	3907	18.689177300176	122
41	3981	19.189177300176	122
41	4108	19.689177300176	122
41	4182	20.189177300176	122
41	4256	20.689177300176	122
41	4330	21.189177300176	122
41	4404	21.689177300176	122
41	4478	22.189177300176	122
41	4605	22.689177300176	122
41	4679	23.189177300176	122
41	4753	23.689177300176	122
41	4827	24.189177300176	122
41	4893	24.689177300176	122
51	2444	13.156024044587	74
36	255	3.1	0
36	255	3.1	0
36	314	3.689177300176	0
36	314	3.689177300176	0
36	320	3.689385300176	0
36	320	3.689385300176	0
36	388	4.189177300176	0
36	388	4.189177300176	0
36	394	4.189385300176	0
36	394	4.189385300176	0
36	462	4.689177300176	0
36	462	4.689177300176	0
36	468	4.689385300176	0
36	468	4.689385300176	0
36	536	5.189177300176	0
36	536	5.189177300176	0
36	542	5.189385300176	0
36	542	5.189385300176	0
36	610	5.689177300176	0
36	610	5.689177300176	0
36	616	5.689385300176	0
36	616	5.689385300176	0
36	684	6.189177300176	0
36	684	6.189177300176	0
36	690	6.189385300176	0
36	690	6.189385300176	0
36	781	6.616260195822	0
36	781	6.616260195822	0
36	797	6.616404195822	0
36	797	6.616404195822	0
36	799	6.616404267511	0
36	799	6.616404267511	0
36	812	6.689177300176	0
36	812	6.689177300176	0
36	818	6.689385300176	0
36	818	6.689385300176	0
36	886	7.189177300176	0
36	886	7.189177300176	0
36	892	7.189385300176	0
36	892	7.189385300176	0
36	960	7.689177300176	0
36	960	7.689177300176	0
36	966	7.689385300176	0
36	966	7.689385300176	0
36	1034	8.189177300176	0
36	1034	8.189177300176	0
36	1040	8.189385300176	0
36	1040	8.189385300176	0
36	1108	8.689177300176	0
36	1108	8.689177300176	0
36	1114	8.689385300176	0
36	1114	8.689385300176	0
36	1182	9.189177300176	0
36	1182	9.189177300176	0
36	1188	9.189385300176	0
36	1188	9.189385300176	0
36	1256	9.689177300176	0
36	1256	9.689177300176	0
36	1262	9.689385300176	0
36	1262	9.689385300176	0
36	1323	9.870287052284	0
36	1323	9.870287052284	0
36	1339	9.870431052284	0
36	1339	9.870431052284	0
36	1345	9.870431176826	0
36	1345	9.870431176826	0
36	1384	10.189177300176	0
36	1384	10.189177300176	0
36	1390	10.189385300176	0
36	1390	10.189385300176	0
36	1458	10.689177300176	0
36	1458	10.689177300176	0
36	1464	10.689385300176	0
36	1464	10.689385300176	0
36	1496	10.789177300176	0
36	1496	10.789177300176	0
36	1502	10.789385300176	0
36	1502	10.789385300176	0
36	1534	10.889177300176	0
36	1534	10.889177300176	0
36	1540	10.889385300176	0
36	1540	10.889385300176	0
36	1572	10.989177300176	0
36	1572	10.989177300176	0
36	1578	10.989385300176	0
36	1578	10.989385300176	0
36	1610	11.089177300176	0
36	1610	11.089177300176	0
36	1616	11.089385300176	0
36	1616	11.089385300176	0
36	1648	11.189177300176	0
36	1648	11.189177300176	0
36	1654	11.189385300176	0
36	1654	11.189385300176	0
36	1686	11.289177300176	0
36	1686	11.289177300176	0
36	1692	11.289385300176	0
36	1692	11.289385300176	0
36	1724	11.389177300176	0
36	1724	11.389177300176	0
36	1730	11.389385300176	0
36	1730	11.389385300176	0
36	1762	11.489177300176	0
36	1762	11.489177300176	0
36	1768	11.489385300176	0
36	1768	11.489385300176	0
36	1800	11.589177300176	0
36	1800	11.589177300176	0
36	1806	11.589385300176	0
36	1806	11.589385300176	0
36	1838	11.689177300176	0
36	1838	11.689177300176	0
36	1844	11.689385300176	0
36	1844	11.689385300176	0
36	1876	11.789177300176	0
36	1876	11.789177300176	0
36	1882	11.789385300176	0
36	1882	11.789385300176	0
36	1914	11.889177300176	0
36	1914	11.889177300176	0
36	1920	11.889385300176	0
36	1920	11.889385300176	0
36	1952	11.989177300176	0
36	1952	11.989177300176	0
36	1958	11.989385300176	0
36	1958	11.989385300176	0
36	1990	12.089177300176	0
36	1990	12.089177300176	0
36	1996	12.089385300176	0
36	1996	12.089385300176	0
36	2028	12.189177300176	0
36	2028	12.189177300176	0
36	2034	12.189385300176	0
36	2034	12.189385300176	0
36	2066	12.289177300176	0
36	2066	12.289177300176	0
36	2072	12.289385300176	0
36	2072	12.289385300176	0
36	2104	12.389177300176	0
36	2104	12.389177300176	0
36	2110	12.389385300176	0
36	2110	12.389385300176	0
36	2142	12.489177300176	0
36	2142	12.489177300176	0
36	2148	12.489385300176	0
36	2148	12.489385300176	0
36	2180	12.589177300176	0
36	2180	12.589177300176	0
36	2186	12.589385300176	0
36	2186	12.589385300176	0
36	2218	12.689177300176	0
36	2218	12.689177300176	0
36	2224	12.689385300176	0
36	2224	12.689385300176	0
36	2256	12.789177300176	0
36	2256	12.789177300176	0
36	2262	12.789385300176	0
36	2262	12.789385300176	0
36	2294	12.889177300176	0
36	2294	12.889177300176	0
36	2300	12.889385300176	0
36	2300	12.889385300176	0
36	2332	12.989177300176	0
36	2332	12.989177300176	0
36	2338	12.989385300176	0
36	2338	12.989385300176	0
36	2370	13.089177300176	0
36	2370	13.089177300176	0
36	2376	13.089385300176	0
36	2376	13.089385300176	0
36	2428	13.155880044587	0
36	2428	13.155880044587	0
36	2453	13.156024166575	0
36	2453	13.156024166575	0
36	2464	13.189177300176	0
36	2464	13.189177300176	0
36	2470	13.189385300176	0
36	2470	13.189385300176	0
36	2502	13.289177300176	0
36	2502	13.289177300176	0
36	2508	13.289385300176	0
36	2508	13.289385300176	0
36	2540	13.389177300176	0
36	2540	13.389177300176	0
36	2546	13.389385300176	0
36	2546	13.389385300176	0
36	2578	13.489177300176	0
36	2578	13.489177300176	0
36	2584	13.489385300176	0
36	2584	13.489385300176	0
36	2616	13.589177300176	0
36	2616	13.589177300176	0
36	2622	13.589385300176	0
36	2622	13.589385300176	0
36	2654	13.689177300176	0
36	2654	13.689177300176	0
36	2660	13.689385300176	0
36	2660	13.689385300176	0
36	2692	13.789177300176	0
36	2692	13.789177300176	0
36	2698	13.789385300176	0
36	2698	13.789385300176	0
36	2730	13.889177300176	0
36	2730	13.889177300176	0
36	2736	13.889385300176	0
36	2736	13.889385300176	0
36	2768	13.989177300176	0
36	2768	13.989177300176	0
36	2774	13.989385300176	0
36	2774	13.989385300176	0
36	2806	14.089177300176	0
36	2806	14.089177300176	0
36	2812	14.089385300176	0
36	2812	14.089385300176	0
36	2844	14.189177300176	0
36	2844	14.189177300176	0
36	2850	14.189385300176	0
36	2850	14.189385300176	0
36	2882	14.289177300176	0
36	2882	14.289177300176	0
36	2888	14.289385300176	0
36	2888	14.289385300176	0
36	2920	14.389177300176	0
36	2920	14.389177300176	0
36	2926	14.389385300176	0
36	2926	14.389385300176	0
36	2958	14.489177300176	0
36	2958	14.489177300176	0
36	2964	14.489385300176	0
36	2964	14.489385300176	0
36	2996	14.589177300176	0
36	2996	14.589177300176	0
36	3002	14.589385300176	0
36	3002	14.589385300176	0
36	3034	14.689177300176	0
36	3034	14.689177300176	0
36	3040	14.689385300176	0
36	3040	14.689385300176	0
36	3072	14.789177300176	0
36	3072	14.789177300176	0
36	3078	14.789385300176	0
36	3078	14.789385300176	0
36	3110	14.889177300176	0
36	3110	14.889177300176	0
36	3116	14.889385300176	0
36	3116	14.889385300176	0
36	3148	14.989177300176	0
36	3148	14.989177300176	0
36	3154	14.989385300176	0
36	3154	14.989385300176	0
36	3186	15.089177300176	0
36	3186	15.089177300176	0
36	3192	15.089385300176	0
36	3192	15.089385300176	0
36	3224	15.189177300176	0
36	3224	15.189177300176	0
36	3230	15.189385300176	0
36	3230	15.189385300176	0
36	3262	15.289177300176	0
36	3262	15.289177300176	0
36	3268	15.289385300176	0
36	3268	15.289385300176	0
36	3300	15.389177300176	0
36	3300	15.389177300176	0
36	3306	15.389385300176	0
36	3306	15.389385300176	0
36	3338	15.489177300176	0
36	3338	15.489177300176	0
36	3344	15.489385300176	0
36	3344	15.489385300176	0
36	3376	15.589177300176	0
36	3376	15.589177300176	0
36	3382	15.589385300176	0
36	3382	15.589385300176	0
36	3414	15.689177300176	0
36	3414	15.689177300176	0
36	3420	15.689385300176	0
36	3420	15.689385300176	0
36	3488	16.189177300176	0
36	3488	16.189177300176	0
36	3494	16.189385300176	0
36	3494	16.189385300176	0
36	3543	16.195908286415	0
36	3543	16.195908286415	0
36	3559	16.196052286415	0
36	3559	16.196052286415	0
36	3561	16.196052412226	0
36	3561	16.196052412226	0
36	3615	16.689177300176	0
36	3615	16.689177300176	0
36	3621	16.689385300176	0
36	3621	16.689385300176	0
36	3689	17.189177300176	0
36	3689	17.189177300176	0
36	3695	17.189385300176	0
36	3695	17.189385300176	0
36	3763	17.689177300176	0
36	3763	17.689177300176	0
36	3769	17.689385300176	0
36	3769	17.689385300176	0
36	3837	18.189177300176	0
36	3837	18.189177300176	0
36	3843	18.189385300176	0
36	3843	18.189385300176	0
36	3911	18.689177300176	0
36	3911	18.689177300176	0
36	3917	18.689385300176	0
36	3917	18.689385300176	0
36	3985	19.189177300176	0
36	3985	19.189177300176	0
36	3991	19.189385300176	0
36	3991	19.189385300176	0
36	4047	19.248067544429	0
36	4047	19.248067544429	0
36	4063	19.248211544429	0
36	4063	19.248211544429	0
36	4065	19.248211670635	0
36	4065	19.248211670635	0
36	4112	19.689177300176	0
36	4112	19.689177300176	0
36	4118	19.689385300176	0
36	4118	19.689385300176	0
36	4186	20.189177300176	0
36	4186	20.189177300176	0
36	4192	20.189385300176	0
36	4192	20.189385300176	0
36	4260	20.689177300176	0
36	4260	20.689177300176	0
36	4266	20.689385300176	0
36	4266	20.689385300176	0
36	4334	21.189177300176	0
36	4334	21.189177300176	0
36	4340	21.189385300176	0
36	4340	21.189385300176	0
36	4408	21.689177300176	0
36	4408	21.689177300176	0
36	4414	21.689385300176	0
36	4414	21.689385300176	0
36	4482	22.189177300176	0
36	4482	22.189177300176	0
36	4488	22.189385300176	0
36	4488	22.189385300176	0
36	4545	22.279937794436	0
36	4545	22.279937794436	0
36	4561	22.280081794436	0
36	4561	22.280081794436	0
36	4563	22.280081920846	0
36	4563	22.280081920846	0
36	4609	22.689177300176	0
36	4609	22.689177300176	0
36	4615	22.689385300176	0
36	4615	22.689385300176	0
36	4683	23.189177300176	0
36	4683	23.189177300176	0
36	4689	23.189385300176	0
36	4689	23.189385300176	0
36	4757	23.689177300176	0
36	4757	23.689177300176	0
36	4763	23.689385300176	0
36	4763	23.689385300176	0
36	4831	24.189177300176	0
36	4831	24.189177300176	0
36	4837	24.189385300176	0
36	4837	24.189385300176	0
36	4897	24.689177300176	0
36	4897	24.689177300176	0
36	4903	24.689385300176	0
36	4903	24.689385300176	0
37	255	3.1	0
37	255	3.1	0
37	314	3.689177300176	0
37	314	3.689177300176	0
37	320	3.689385300176	0
37	320	3.689385300176	0
37	388	4.189177300176	0
37	388	4.189177300176	0
37	394	4.189385300176	0
37	394	4.189385300176	0
37	462	4.689177300176	0
37	462	4.689177300176	0
37	468	4.689385300176	0
37	468	4.689385300176	0
37	536	5.189177300176	0
37	536	5.189177300176	0
37	542	5.189385300176	0
37	542	5.189385300176	0
37	610	5.689177300176	0
37	610	5.689177300176	0
37	616	5.689385300176	0
37	616	5.689385300176	0
37	684	6.189177300176	0
37	684	6.189177300176	0
37	690	6.189385300176	0
37	690	6.189385300176	0
37	781	6.616260195822	0
37	781	6.616260195822	0
37	797	6.616404195822	0
37	797	6.616404195822	0
37	799	6.616404267511	0
37	799	6.616404267511	0
37	812	6.689177300176	0
37	812	6.689177300176	0
37	818	6.689385300176	0
37	818	6.689385300176	0
37	886	7.189177300176	0
37	886	7.189177300176	0
37	892	7.189385300176	0
37	892	7.189385300176	0
37	960	7.689177300176	0
37	960	7.689177300176	0
37	966	7.689385300176	0
37	966	7.689385300176	0
37	1034	8.189177300176	0
37	1034	8.189177300176	0
37	1040	8.189385300176	0
37	1040	8.189385300176	0
37	1108	8.689177300176	0
37	1108	8.689177300176	0
37	1114	8.689385300176	0
37	1114	8.689385300176	0
37	1182	9.189177300176	0
37	1182	9.189177300176	0
37	1188	9.189385300176	0
37	1188	9.189385300176	0
37	1256	9.689177300176	0
37	1256	9.689177300176	0
37	1262	9.689385300176	0
37	1262	9.689385300176	0
37	1323	9.870287052284	0
37	1323	9.870287052284	0
37	1339	9.870431052284	0
37	1339	9.870431052284	0
37	1345	9.870431176826	0
37	1345	9.870431176826	0
37	1384	10.189177300176	0
37	1384	10.189177300176	0
37	1390	10.189385300176	0
37	1390	10.189385300176	0
37	1458	10.689177300176	0
37	1458	10.689177300176	0
37	1464	10.689385300176	0
37	1464	10.689385300176	0
37	1496	10.789177300176	0
37	1496	10.789177300176	0
37	1502	10.789385300176	0
37	1502	10.789385300176	0
37	1534	10.889177300176	0
37	1534	10.889177300176	0
37	1540	10.889385300176	0
37	1540	10.889385300176	0
37	1572	10.989177300176	0
37	1572	10.989177300176	0
37	1578	10.989385300176	0
37	1578	10.989385300176	0
37	1610	11.089177300176	0
37	1610	11.089177300176	0
37	1616	11.089385300176	0
37	1616	11.089385300176	0
37	1648	11.189177300176	0
37	1648	11.189177300176	0
37	1654	11.189385300176	0
37	1654	11.189385300176	0
37	1686	11.289177300176	0
37	1686	11.289177300176	0
37	1692	11.289385300176	0
37	1692	11.289385300176	0
37	1724	11.389177300176	0
37	1724	11.389177300176	0
37	1730	11.389385300176	0
37	1730	11.389385300176	0
37	1762	11.489177300176	0
37	1762	11.489177300176	0
37	1768	11.489385300176	0
37	1768	11.489385300176	0
37	1800	11.589177300176	0
37	1800	11.589177300176	0
37	1806	11.589385300176	0
37	1806	11.589385300176	0
37	1838	11.689177300176	0
37	1838	11.689177300176	0
37	1844	11.689385300176	0
37	1844	11.689385300176	0
37	1876	11.789177300176	0
37	1876	11.789177300176	0
37	1882	11.789385300176	0
37	1882	11.789385300176	0
37	1914	11.889177300176	0
37	1914	11.889177300176	0
37	1920	11.889385300176	0
37	1920	11.889385300176	0
37	1952	11.989177300176	0
37	1952	11.989177300176	0
37	1958	11.989385300176	0
37	1958	11.989385300176	0
37	1990	12.089177300176	0
37	1990	12.089177300176	0
37	1996	12.089385300176	0
37	1996	12.089385300176	0
37	2028	12.189177300176	0
37	2028	12.189177300176	0
37	2034	12.189385300176	0
37	2034	12.189385300176	0
37	2066	12.289177300176	0
37	2066	12.289177300176	0
37	2072	12.289385300176	0
37	2072	12.289385300176	0
37	2104	12.389177300176	0
37	2104	12.389177300176	0
37	2110	12.389385300176	0
37	2110	12.389385300176	0
37	2142	12.489177300176	0
37	2142	12.489177300176	0
37	2148	12.489385300176	0
37	2148	12.489385300176	0
37	2180	12.589177300176	0
37	2180	12.589177300176	0
37	2186	12.589385300176	0
37	2186	12.589385300176	0
37	2218	12.689177300176	0
37	2218	12.689177300176	0
37	2224	12.689385300176	0
37	2224	12.689385300176	0
37	2256	12.789177300176	0
37	2256	12.789177300176	0
37	2262	12.789385300176	0
37	2262	12.789385300176	0
37	2294	12.889177300176	0
37	2294	12.889177300176	0
37	2300	12.889385300176	0
37	2300	12.889385300176	0
37	2332	12.989177300176	0
37	2332	12.989177300176	0
37	2338	12.989385300176	0
37	2338	12.989385300176	0
37	2370	13.089177300176	0
37	2370	13.089177300176	0
37	2376	13.089385300176	0
37	2376	13.089385300176	0
37	2428	13.155880044587	0
37	2428	13.155880044587	0
37	2453	13.156024166575	0
37	2453	13.156024166575	0
37	2464	13.189177300176	0
37	2464	13.189177300176	0
37	2470	13.189385300176	0
37	2470	13.189385300176	0
37	2502	13.289177300176	0
37	2502	13.289177300176	0
37	2508	13.289385300176	0
37	2508	13.289385300176	0
37	2540	13.389177300176	0
37	2540	13.389177300176	0
37	2546	13.389385300176	0
37	2546	13.389385300176	0
37	2578	13.489177300176	0
37	2578	13.489177300176	0
37	2584	13.489385300176	0
37	2584	13.489385300176	0
37	2616	13.589177300176	0
37	2616	13.589177300176	0
37	2622	13.589385300176	0
37	2622	13.589385300176	0
37	2654	13.689177300176	0
37	2654	13.689177300176	0
37	2660	13.689385300176	0
37	2660	13.689385300176	0
37	2692	13.789177300176	0
37	2692	13.789177300176	0
37	2698	13.789385300176	0
37	2698	13.789385300176	0
37	2730	13.889177300176	0
37	2730	13.889177300176	0
37	2736	13.889385300176	0
37	2736	13.889385300176	0
37	2768	13.989177300176	0
37	2768	13.989177300176	0
37	2774	13.989385300176	0
37	2774	13.989385300176	0
37	2806	14.089177300176	0
37	2806	14.089177300176	0
37	2812	14.089385300176	0
37	2812	14.089385300176	0
37	2844	14.189177300176	0
37	2844	14.189177300176	0
37	2850	14.189385300176	0
37	2850	14.189385300176	0
37	2882	14.289177300176	0
37	2882	14.289177300176	0
37	2888	14.289385300176	0
37	2888	14.289385300176	0
37	2920	14.389177300176	0
37	2920	14.389177300176	0
37	2926	14.389385300176	0
37	2926	14.389385300176	0
37	2958	14.489177300176	0
37	2958	14.489177300176	0
37	2964	14.489385300176	0
37	2964	14.489385300176	0
37	2996	14.589177300176	0
37	2996	14.589177300176	0
37	3002	14.589385300176	0
37	3002	14.589385300176	0
37	3034	14.689177300176	0
37	3034	14.689177300176	0
37	3040	14.689385300176	0
37	3040	14.689385300176	0
37	3072	14.789177300176	0
37	3072	14.789177300176	0
37	3078	14.789385300176	0
37	3078	14.789385300176	0
37	3110	14.889177300176	0
37	3110	14.889177300176	0
37	3116	14.889385300176	0
37	3116	14.889385300176	0
37	3148	14.989177300176	0
37	3148	14.989177300176	0
37	3154	14.989385300176	0
37	3154	14.989385300176	0
37	3186	15.089177300176	0
37	3186	15.089177300176	0
37	3192	15.089385300176	0
37	3192	15.089385300176	0
37	3224	15.189177300176	0
37	3224	15.189177300176	0
37	3230	15.189385300176	0
37	3230	15.189385300176	0
37	3262	15.289177300176	0
37	3262	15.289177300176	0
37	3268	15.289385300176	0
37	3268	15.289385300176	0
37	3300	15.389177300176	0
37	3300	15.389177300176	0
37	3306	15.389385300176	0
37	3306	15.389385300176	0
37	3338	15.489177300176	0
37	3338	15.489177300176	0
37	3344	15.489385300176	0
37	3344	15.489385300176	0
37	3376	15.589177300176	0
37	3376	15.589177300176	0
37	3382	15.589385300176	0
37	3382	15.589385300176	0
37	3414	15.689177300176	0
37	3414	15.689177300176	0
37	3420	15.689385300176	0
37	3420	15.689385300176	0
37	3488	16.189177300176	0
37	3488	16.189177300176	0
37	3494	16.189385300176	0
37	3494	16.189385300176	0
37	3543	16.195908286415	0
37	3543	16.195908286415	0
37	3559	16.196052286415	0
37	3559	16.196052286415	0
37	3561	16.196052412226	0
37	3561	16.196052412226	0
37	3615	16.689177300176	0
37	3615	16.689177300176	0
37	3621	16.689385300176	0
37	3621	16.689385300176	0
37	3689	17.189177300176	0
37	3689	17.189177300176	0
37	3695	17.189385300176	0
37	3695	17.189385300176	0
37	3763	17.689177300176	0
37	3763	17.689177300176	0
37	3769	17.689385300176	0
37	3769	17.689385300176	0
37	3837	18.189177300176	0
37	3837	18.189177300176	0
37	3843	18.189385300176	0
37	3843	18.189385300176	0
37	3911	18.689177300176	0
37	3911	18.689177300176	0
37	3917	18.689385300176	0
37	3917	18.689385300176	0
37	3985	19.189177300176	0
37	3985	19.189177300176	0
37	3991	19.189385300176	0
37	3991	19.189385300176	0
37	4047	19.248067544429	0
37	4047	19.248067544429	0
37	4063	19.248211544429	0
37	4063	19.248211544429	0
37	4065	19.248211670635	0
37	4065	19.248211670635	0
37	4112	19.689177300176	0
37	4112	19.689177300176	0
37	4118	19.689385300176	0
37	4118	19.689385300176	0
37	4186	20.189177300176	0
37	4186	20.189177300176	0
37	4192	20.189385300176	0
37	4192	20.189385300176	0
37	4260	20.689177300176	0
37	4260	20.689177300176	0
37	4266	20.689385300176	0
37	4266	20.689385300176	0
37	4334	21.189177300176	0
37	4334	21.189177300176	0
37	4340	21.189385300176	0
37	4340	21.189385300176	0
37	4408	21.689177300176	0
37	4408	21.689177300176	0
37	4414	21.689385300176	0
37	4414	21.689385300176	0
37	4482	22.189177300176	0
37	4482	22.189177300176	0
37	4488	22.189385300176	0
37	4488	22.189385300176	0
37	4545	22.279937794436	0
37	4545	22.279937794436	0
37	4561	22.280081794436	0
37	4561	22.280081794436	0
37	4563	22.280081920846	0
37	4563	22.280081920846	0
37	4609	22.689177300176	0
37	4609	22.689177300176	0
37	4615	22.689385300176	0
37	4615	22.689385300176	0
37	4683	23.189177300176	0
37	4683	23.189177300176	0
37	4689	23.189385300176	0
37	4689	23.189385300176	0
37	4757	23.689177300176	0
37	4757	23.689177300176	0
37	4763	23.689385300176	0
37	4763	23.689385300176	0
37	4831	24.189177300176	0
37	4831	24.189177300176	0
37	4837	24.189385300176	0
37	4837	24.189385300176	0
37	4897	24.689177300176	0
37	4897	24.689177300176	0
37	4903	24.689385300176	0
37	4903	24.689385300176	0
38	255	3.1	0
38	255	3.1	0
38	314	3.689177300176	0
38	314	3.689177300176	0
38	320	3.689385300176	0
38	320	3.689385300176	0
38	388	4.189177300176	0
38	388	4.189177300176	0
38	394	4.189385300176	0
38	394	4.189385300176	0
38	462	4.689177300176	0
38	462	4.689177300176	0
38	468	4.689385300176	0
38	468	4.689385300176	0
38	536	5.189177300176	0
38	536	5.189177300176	0
38	542	5.189385300176	0
38	542	5.189385300176	0
38	610	5.689177300176	0
38	610	5.689177300176	0
38	616	5.689385300176	0
38	616	5.689385300176	0
38	684	6.189177300176	0
38	684	6.189177300176	0
38	690	6.189385300176	0
38	690	6.189385300176	0
38	781	6.616260195822	0
38	781	6.616260195822	0
38	797	6.616404195822	0
38	797	6.616404195822	0
38	799	6.616404267511	0
38	799	6.616404267511	0
38	812	6.689177300176	0
38	812	6.689177300176	0
38	818	6.689385300176	0
38	818	6.689385300176	0
38	886	7.189177300176	0
38	886	7.189177300176	0
38	892	7.189385300176	0
38	892	7.189385300176	0
38	960	7.689177300176	0
38	960	7.689177300176	0
38	966	7.689385300176	0
38	966	7.689385300176	0
38	1034	8.189177300176	0
38	1034	8.189177300176	0
38	1040	8.189385300176	0
38	1040	8.189385300176	0
38	1108	8.689177300176	0
38	1108	8.689177300176	0
38	1114	8.689385300176	0
38	1114	8.689385300176	0
38	1182	9.189177300176	0
38	1182	9.189177300176	0
38	1188	9.189385300176	0
38	1188	9.189385300176	0
38	1256	9.689177300176	0
38	1256	9.689177300176	0
38	1262	9.689385300176	0
38	1262	9.689385300176	0
38	1323	9.870287052284	0
38	1323	9.870287052284	0
38	1339	9.870431052284	0
38	1339	9.870431052284	0
38	1345	9.870431176826	0
38	1345	9.870431176826	0
38	1384	10.189177300176	0
38	1384	10.189177300176	0
38	1390	10.189385300176	0
38	1390	10.189385300176	0
38	1458	10.689177300176	0
38	1458	10.689177300176	0
38	1464	10.689385300176	0
38	1464	10.689385300176	0
38	1496	10.789177300176	0
38	1496	10.789177300176	0
38	1502	10.789385300176	0
38	1502	10.789385300176	0
38	1534	10.889177300176	0
38	1534	10.889177300176	0
38	1540	10.889385300176	0
38	1540	10.889385300176	0
38	1572	10.989177300176	0
38	1572	10.989177300176	0
38	1578	10.989385300176	0
38	1578	10.989385300176	0
38	1610	11.089177300176	0
38	1610	11.089177300176	0
38	1616	11.089385300176	0
38	1616	11.089385300176	0
38	1648	11.189177300176	0
38	1648	11.189177300176	0
38	1654	11.189385300176	0
38	1654	11.189385300176	0
38	1686	11.289177300176	0
38	1686	11.289177300176	0
38	1692	11.289385300176	0
38	1692	11.289385300176	0
38	1724	11.389177300176	0
38	1724	11.389177300176	0
38	1730	11.389385300176	0
38	1730	11.389385300176	0
38	1762	11.489177300176	0
38	1762	11.489177300176	0
38	1768	11.489385300176	0
38	1768	11.489385300176	0
38	1800	11.589177300176	0
38	1800	11.589177300176	0
38	1806	11.589385300176	0
38	1806	11.589385300176	0
38	1838	11.689177300176	0
38	1838	11.689177300176	0
38	1844	11.689385300176	0
38	1844	11.689385300176	0
38	1876	11.789177300176	0
38	1876	11.789177300176	0
38	1882	11.789385300176	0
38	1882	11.789385300176	0
38	1914	11.889177300176	0
38	1914	11.889177300176	0
38	1920	11.889385300176	0
38	1920	11.889385300176	0
38	1952	11.989177300176	0
38	1952	11.989177300176	0
38	1958	11.989385300176	0
38	1958	11.989385300176	0
38	1990	12.089177300176	0
38	1990	12.089177300176	0
38	1996	12.089385300176	0
38	1996	12.089385300176	0
38	2028	12.189177300176	0
38	2028	12.189177300176	0
38	2034	12.189385300176	0
38	2034	12.189385300176	0
38	2066	12.289177300176	0
38	2066	12.289177300176	0
38	2072	12.289385300176	0
38	2072	12.289385300176	0
38	2104	12.389177300176	0
38	2104	12.389177300176	0
38	2110	12.389385300176	0
38	2110	12.389385300176	0
38	2142	12.489177300176	0
38	2142	12.489177300176	0
38	2148	12.489385300176	0
38	2148	12.489385300176	0
38	2180	12.589177300176	0
38	2180	12.589177300176	0
38	2186	12.589385300176	0
38	2186	12.589385300176	0
38	2218	12.689177300176	0
38	2218	12.689177300176	0
38	2224	12.689385300176	0
38	2224	12.689385300176	0
38	2256	12.789177300176	0
38	2256	12.789177300176	0
38	2262	12.789385300176	0
38	2262	12.789385300176	0
38	2294	12.889177300176	0
38	2294	12.889177300176	0
38	2300	12.889385300176	0
38	2300	12.889385300176	0
38	2332	12.989177300176	0
38	2332	12.989177300176	0
38	2338	12.989385300176	0
38	2338	12.989385300176	0
38	2370	13.089177300176	0
38	2370	13.089177300176	0
38	2376	13.089385300176	0
38	2376	13.089385300176	0
38	2428	13.155880044587	0
38	2428	13.155880044587	0
38	2453	13.156024166575	0
38	2453	13.156024166575	0
38	2464	13.189177300176	0
38	2464	13.189177300176	0
38	2470	13.189385300176	0
38	2470	13.189385300176	0
38	2502	13.289177300176	0
38	2502	13.289177300176	0
38	2508	13.289385300176	0
38	2508	13.289385300176	0
38	2540	13.389177300176	0
38	2540	13.389177300176	0
38	2546	13.389385300176	0
38	2546	13.389385300176	0
38	2578	13.489177300176	0
38	2578	13.489177300176	0
38	2584	13.489385300176	0
38	2584	13.489385300176	0
38	2616	13.589177300176	0
38	2616	13.589177300176	0
38	2622	13.589385300176	0
38	2622	13.589385300176	0
38	2654	13.689177300176	0
38	2654	13.689177300176	0
38	2660	13.689385300176	0
38	2660	13.689385300176	0
38	2692	13.789177300176	0
38	2692	13.789177300176	0
38	2698	13.789385300176	0
38	2698	13.789385300176	0
38	2730	13.889177300176	0
38	2730	13.889177300176	0
38	2736	13.889385300176	0
38	2736	13.889385300176	0
38	2768	13.989177300176	0
38	2768	13.989177300176	0
38	2774	13.989385300176	0
38	2774	13.989385300176	0
38	2806	14.089177300176	0
38	2806	14.089177300176	0
38	2812	14.089385300176	0
38	2812	14.089385300176	0
38	2844	14.189177300176	0
38	2844	14.189177300176	0
38	2850	14.189385300176	0
38	2850	14.189385300176	0
38	2882	14.289177300176	0
38	2882	14.289177300176	0
38	2888	14.289385300176	0
38	2888	14.289385300176	0
38	2920	14.389177300176	0
38	2920	14.389177300176	0
38	2926	14.389385300176	0
38	2926	14.389385300176	0
38	2958	14.489177300176	0
38	2958	14.489177300176	0
38	2964	14.489385300176	0
38	2964	14.489385300176	0
38	2996	14.589177300176	0
38	2996	14.589177300176	0
38	3002	14.589385300176	0
38	3002	14.589385300176	0
38	3034	14.689177300176	0
38	3034	14.689177300176	0
38	3040	14.689385300176	0
38	3040	14.689385300176	0
38	3072	14.789177300176	0
38	3072	14.789177300176	0
38	3078	14.789385300176	0
38	3078	14.789385300176	0
38	3110	14.889177300176	0
38	3110	14.889177300176	0
38	3116	14.889385300176	0
38	3116	14.889385300176	0
38	3148	14.989177300176	0
38	3148	14.989177300176	0
38	3154	14.989385300176	0
38	3154	14.989385300176	0
38	3186	15.089177300176	0
38	3186	15.089177300176	0
38	3192	15.089385300176	0
38	3192	15.089385300176	0
38	3224	15.189177300176	0
38	3224	15.189177300176	0
38	3230	15.189385300176	0
38	3230	15.189385300176	0
38	3262	15.289177300176	0
38	3262	15.289177300176	0
38	3268	15.289385300176	0
38	3268	15.289385300176	0
38	3300	15.389177300176	0
38	3300	15.389177300176	0
38	3306	15.389385300176	0
38	3306	15.389385300176	0
38	3338	15.489177300176	0
38	3338	15.489177300176	0
38	3344	15.489385300176	0
38	3344	15.489385300176	0
38	3376	15.589177300176	0
38	3376	15.589177300176	0
38	3382	15.589385300176	0
38	3382	15.589385300176	0
38	3414	15.689177300176	0
38	3414	15.689177300176	0
38	3420	15.689385300176	0
38	3420	15.689385300176	0
38	3488	16.189177300176	0
38	3488	16.189177300176	0
38	3494	16.189385300176	0
38	3494	16.189385300176	0
38	3543	16.195908286415	0
38	3543	16.195908286415	0
38	3559	16.196052286415	0
38	3559	16.196052286415	0
38	3561	16.196052412226	0
38	3561	16.196052412226	0
38	3615	16.689177300176	0
38	3615	16.689177300176	0
38	3621	16.689385300176	0
38	3621	16.689385300176	0
38	3689	17.189177300176	0
38	3689	17.189177300176	0
38	3695	17.189385300176	0
38	3695	17.189385300176	0
38	3763	17.689177300176	0
38	3763	17.689177300176	0
38	3769	17.689385300176	0
38	3769	17.689385300176	0
38	3837	18.189177300176	0
38	3837	18.189177300176	0
38	3843	18.189385300176	0
38	3843	18.189385300176	0
38	3911	18.689177300176	0
38	3911	18.689177300176	0
38	3917	18.689385300176	0
38	3917	18.689385300176	0
38	3985	19.189177300176	0
38	3985	19.189177300176	0
38	3991	19.189385300176	0
38	3991	19.189385300176	0
38	4047	19.248067544429	0
38	4047	19.248067544429	0
38	4063	19.248211544429	0
38	4063	19.248211544429	0
38	4065	19.248211670635	0
38	4065	19.248211670635	0
38	4112	19.689177300176	0
38	4112	19.689177300176	0
38	4118	19.689385300176	0
38	4118	19.689385300176	0
38	4186	20.189177300176	0
38	4186	20.189177300176	0
38	4192	20.189385300176	0
38	4192	20.189385300176	0
38	4260	20.689177300176	0
38	4260	20.689177300176	0
38	4266	20.689385300176	0
38	4266	20.689385300176	0
38	4334	21.189177300176	0
38	4334	21.189177300176	0
38	4340	21.189385300176	0
38	4340	21.189385300176	0
38	4408	21.689177300176	0
38	4408	21.689177300176	0
38	4414	21.689385300176	0
38	4414	21.689385300176	0
38	4482	22.189177300176	0
38	4482	22.189177300176	0
38	4488	22.189385300176	0
38	4488	22.189385300176	0
38	4545	22.279937794436	0
38	4545	22.279937794436	0
38	4561	22.280081794436	0
38	4561	22.280081794436	0
38	4563	22.280081920846	0
38	4563	22.280081920846	0
38	4609	22.689177300176	0
38	4609	22.689177300176	0
38	4615	22.689385300176	0
38	4615	22.689385300176	0
38	4683	23.189177300176	0
38	4683	23.189177300176	0
38	4689	23.189385300176	0
38	4689	23.189385300176	0
38	4757	23.689177300176	0
38	4757	23.689177300176	0
38	4763	23.689385300176	0
38	4763	23.689385300176	0
38	4831	24.189177300176	0
38	4831	24.189177300176	0
38	4837	24.189385300176	0
38	4837	24.189385300176	0
38	4897	24.689177300176	0
38	4897	24.689177300176	0
38	4903	24.689385300176	0
38	4903	24.689385300176	0
39	255	3.1	0
39	255	3.1	0
39	310	3.689177300176	0
39	310	3.689177300176	2
39	311	3.689177300176	2
39	311	3.689177300176	0
39	314	3.689177300176	0
39	314	3.689177300176	0
39	320	3.689385300176	0
39	320	3.689385300176	0
39	384	4.189177300176	0
39	384	4.189177300176	2
39	385	4.189177300176	2
39	385	4.189177300176	0
39	388	4.189177300176	0
39	388	4.189177300176	0
39	394	4.189385300176	0
39	394	4.189385300176	0
39	458	4.689177300176	0
39	458	4.689177300176	2
39	459	4.689177300176	2
39	459	4.689177300176	0
39	462	4.689177300176	0
39	462	4.689177300176	0
39	468	4.689385300176	0
39	468	4.689385300176	0
39	532	5.189177300176	0
39	532	5.189177300176	2
39	533	5.189177300176	2
39	533	5.189177300176	0
39	536	5.189177300176	0
39	536	5.189177300176	0
39	542	5.189385300176	0
39	542	5.189385300176	0
39	606	5.689177300176	0
39	606	5.689177300176	2
39	607	5.689177300176	2
39	607	5.689177300176	0
39	610	5.689177300176	0
39	610	5.689177300176	0
39	616	5.689385300176	0
39	616	5.689385300176	0
39	680	6.189177300176	0
39	680	6.189177300176	2
39	681	6.189177300176	2
39	681	6.189177300176	0
39	684	6.189177300176	0
39	684	6.189177300176	0
39	690	6.189385300176	0
39	690	6.189385300176	0
39	781	6.616260195822	0
39	781	6.616260195822	0
39	797	6.616404195822	0
39	797	6.616404195822	0
39	799	6.616404267511	0
39	799	6.616404267511	0
39	808	6.689177300176	0
39	808	6.689177300176	2
39	809	6.689177300176	2
39	809	6.689177300176	0
39	812	6.689177300176	0
39	812	6.689177300176	0
39	818	6.689385300176	0
39	818	6.689385300176	0
39	882	7.189177300176	0
39	882	7.189177300176	2
39	883	7.189177300176	2
39	883	7.189177300176	0
39	886	7.189177300176	0
39	886	7.189177300176	0
39	892	7.189385300176	0
39	892	7.189385300176	0
39	956	7.689177300176	0
39	956	7.689177300176	2
39	957	7.689177300176	2
39	957	7.689177300176	0
39	960	7.689177300176	0
39	960	7.689177300176	0
39	966	7.689385300176	0
39	966	7.689385300176	0
39	1030	8.189177300176	0
39	1030	8.189177300176	2
39	1031	8.189177300176	2
39	1031	8.189177300176	0
39	1034	8.189177300176	0
39	1034	8.189177300176	0
39	1040	8.189385300176	0
39	1040	8.189385300176	0
39	1104	8.689177300176	0
39	1104	8.689177300176	2
39	1105	8.689177300176	2
39	1105	8.689177300176	0
39	1108	8.689177300176	0
39	1108	8.689177300176	0
39	1114	8.689385300176	0
39	1114	8.689385300176	0
39	1178	9.189177300176	0
39	1178	9.189177300176	2
39	1179	9.189177300176	2
39	1179	9.189177300176	0
39	1182	9.189177300176	0
39	1182	9.189177300176	0
39	1188	9.189385300176	0
39	1188	9.189385300176	0
39	1252	9.689177300176	0
39	1252	9.689177300176	2
39	1253	9.689177300176	2
39	1253	9.689177300176	0
39	1256	9.689177300176	0
39	1256	9.689177300176	0
39	1262	9.689385300176	0
39	1262	9.689385300176	0
39	1323	9.870287052284	0
39	1323	9.870287052284	0
39	1339	9.870431052284	0
39	1339	9.870431052284	0
39	1345	9.870431176826	0
39	1345	9.870431176826	0
39	1380	10.189177300176	0
39	1380	10.189177300176	2
39	1381	10.189177300176	2
39	1381	10.189177300176	0
39	1384	10.189177300176	0
39	1384	10.189177300176	0
39	1390	10.189385300176	0
39	1390	10.189385300176	0
39	1454	10.689177300176	0
39	1454	10.689177300176	2
39	1455	10.689177300176	2
39	1455	10.689177300176	0
39	1458	10.689177300176	0
39	1458	10.689177300176	0
39	1464	10.689385300176	0
39	1464	10.689385300176	0
39	1492	10.789177300176	0
39	1492	10.789177300176	2
39	1493	10.789177300176	2
39	1493	10.789177300176	0
39	1496	10.789177300176	0
39	1496	10.789177300176	0
39	1502	10.789385300176	0
39	1502	10.789385300176	0
39	1530	10.889177300176	0
39	1530	10.889177300176	2
39	1531	10.889177300176	2
39	1531	10.889177300176	0
39	1534	10.889177300176	0
39	1534	10.889177300176	0
39	1540	10.889385300176	0
39	1540	10.889385300176	0
39	1568	10.989177300176	0
39	1568	10.989177300176	2
39	1569	10.989177300176	2
39	1569	10.989177300176	0
39	1572	10.989177300176	0
39	1572	10.989177300176	0
39	1578	10.989385300176	0
39	1578	10.989385300176	0
39	1606	11.089177300176	0
39	1606	11.089177300176	2
39	1607	11.089177300176	2
39	1607	11.089177300176	0
39	1610	11.089177300176	0
39	1610	11.089177300176	0
39	1616	11.089385300176	0
39	1616	11.089385300176	0
39	1644	11.189177300176	0
39	1644	11.189177300176	2
39	1645	11.189177300176	2
39	1645	11.189177300176	0
39	1648	11.189177300176	0
39	1648	11.189177300176	0
39	1654	11.189385300176	0
39	1654	11.189385300176	0
39	1682	11.289177300176	0
39	1682	11.289177300176	2
39	1683	11.289177300176	2
39	1683	11.289177300176	0
39	1686	11.289177300176	0
39	1686	11.289177300176	0
39	1692	11.289385300176	0
39	1692	11.289385300176	0
39	1720	11.389177300176	0
39	1720	11.389177300176	2
39	1721	11.389177300176	2
39	1721	11.389177300176	0
39	1724	11.389177300176	0
39	1724	11.389177300176	0
39	1730	11.389385300176	0
39	1730	11.389385300176	0
39	1758	11.489177300176	0
39	1758	11.489177300176	2
39	1759	11.489177300176	2
39	1759	11.489177300176	0
39	1762	11.489177300176	0
39	1762	11.489177300176	0
39	1768	11.489385300176	0
39	1768	11.489385300176	0
39	1796	11.589177300176	0
39	1796	11.589177300176	2
39	1797	11.589177300176	2
39	1797	11.589177300176	0
39	1800	11.589177300176	0
39	1800	11.589177300176	0
39	1806	11.589385300176	0
39	1806	11.589385300176	0
39	1834	11.689177300176	0
39	1834	11.689177300176	2
39	1835	11.689177300176	2
39	1835	11.689177300176	0
39	1838	11.689177300176	0
39	1838	11.689177300176	0
39	1844	11.689385300176	0
39	1844	11.689385300176	0
39	1872	11.789177300176	0
39	1872	11.789177300176	2
39	1873	11.789177300176	2
39	1873	11.789177300176	0
39	1876	11.789177300176	0
39	1876	11.789177300176	0
39	1882	11.789385300176	0
39	1882	11.789385300176	0
39	1910	11.889177300176	0
39	1910	11.889177300176	2
39	1911	11.889177300176	2
39	1911	11.889177300176	0
39	1914	11.889177300176	0
39	1914	11.889177300176	0
39	1920	11.889385300176	0
39	1920	11.889385300176	0
39	1948	11.989177300176	0
39	1948	11.989177300176	2
39	1949	11.989177300176	2
39	1949	11.989177300176	0
39	1952	11.989177300176	0
39	1952	11.989177300176	0
39	1958	11.989385300176	0
39	1958	11.989385300176	0
39	1986	12.089177300176	0
39	1986	12.089177300176	2
39	1987	12.089177300176	2
39	1987	12.089177300176	0
39	1990	12.089177300176	0
39	1990	12.089177300176	0
39	1996	12.089385300176	0
39	1996	12.089385300176	0
39	2024	12.189177300176	0
39	2024	12.189177300176	2
39	2025	12.189177300176	2
39	2025	12.189177300176	0
39	2028	12.189177300176	0
39	2028	12.189177300176	0
39	2034	12.189385300176	0
39	2034	12.189385300176	0
39	2062	12.289177300176	0
39	2062	12.289177300176	2
39	2063	12.289177300176	2
39	2063	12.289177300176	0
39	2066	12.289177300176	0
39	2066	12.289177300176	0
39	2072	12.289385300176	0
39	2072	12.289385300176	0
39	2100	12.389177300176	0
39	2100	12.389177300176	2
39	2101	12.389177300176	2
39	2101	12.389177300176	0
39	2104	12.389177300176	0
39	2104	12.389177300176	0
39	2110	12.389385300176	0
39	2110	12.389385300176	0
39	2138	12.489177300176	0
39	2138	12.489177300176	2
39	2139	12.489177300176	2
39	2139	12.489177300176	0
39	2142	12.489177300176	0
39	2142	12.489177300176	0
39	2148	12.489385300176	0
39	2148	12.489385300176	0
39	2176	12.589177300176	0
39	2176	12.589177300176	2
39	2177	12.589177300176	2
39	2177	12.589177300176	0
39	2180	12.589177300176	0
39	2180	12.589177300176	0
39	2186	12.589385300176	0
39	2186	12.589385300176	0
39	2214	12.689177300176	0
39	2214	12.689177300176	2
39	2215	12.689177300176	2
39	2215	12.689177300176	0
39	2218	12.689177300176	0
39	2218	12.689177300176	0
39	2224	12.689385300176	0
39	2224	12.689385300176	0
39	2252	12.789177300176	0
39	2252	12.789177300176	2
39	2253	12.789177300176	2
39	2253	12.789177300176	0
39	2256	12.789177300176	0
39	2256	12.789177300176	0
39	2262	12.789385300176	0
39	2262	12.789385300176	0
39	2290	12.889177300176	0
39	2290	12.889177300176	2
39	2291	12.889177300176	2
39	2291	12.889177300176	0
39	2294	12.889177300176	0
39	2294	12.889177300176	0
39	2300	12.889385300176	0
39	2300	12.889385300176	0
39	2328	12.989177300176	0
39	2328	12.989177300176	2
39	2329	12.989177300176	2
39	2329	12.989177300176	0
39	2332	12.989177300176	0
39	2332	12.989177300176	0
39	2338	12.989385300176	0
39	2338	12.989385300176	0
39	2366	13.089177300176	0
39	2366	13.089177300176	2
39	2367	13.089177300176	2
39	2367	13.089177300176	0
39	2370	13.089177300176	0
39	2370	13.089177300176	0
39	2376	13.089385300176	0
39	2376	13.089385300176	0
39	2428	13.155880044587	0
39	2428	13.155880044587	0
39	2453	13.156024166575	0
39	2453	13.156024166575	0
39	2460	13.189177300176	0
39	2460	13.189177300176	2
39	2461	13.189177300176	2
39	2461	13.189177300176	0
39	2464	13.189177300176	0
39	2464	13.189177300176	0
39	2470	13.189385300176	0
39	2470	13.189385300176	0
39	2498	13.289177300176	0
39	2498	13.289177300176	2
39	2499	13.289177300176	2
39	2499	13.289177300176	0
39	2502	13.289177300176	0
39	2502	13.289177300176	0
39	2508	13.289385300176	0
39	2508	13.289385300176	0
39	2536	13.389177300176	0
39	2536	13.389177300176	2
39	2537	13.389177300176	2
39	2537	13.389177300176	0
39	2540	13.389177300176	0
39	2540	13.389177300176	0
39	2546	13.389385300176	0
39	2546	13.389385300176	0
39	2574	13.489177300176	0
39	2574	13.489177300176	2
39	2575	13.489177300176	2
39	2575	13.489177300176	0
39	2578	13.489177300176	0
39	2578	13.489177300176	0
39	2584	13.489385300176	0
39	2584	13.489385300176	0
39	2612	13.589177300176	0
39	2612	13.589177300176	2
39	2613	13.589177300176	2
39	2613	13.589177300176	0
39	2616	13.589177300176	0
39	2616	13.589177300176	0
39	2622	13.589385300176	0
39	2622	13.589385300176	0
39	2650	13.689177300176	0
39	2650	13.689177300176	2
39	2651	13.689177300176	2
39	2651	13.689177300176	0
39	2654	13.689177300176	0
39	2654	13.689177300176	0
39	2660	13.689385300176	0
39	2660	13.689385300176	0
39	2688	13.789177300176	0
39	2688	13.789177300176	2
39	2689	13.789177300176	2
39	2689	13.789177300176	0
39	2692	13.789177300176	0
39	2692	13.789177300176	0
39	2698	13.789385300176	0
39	2698	13.789385300176	0
39	2726	13.889177300176	0
39	2726	13.889177300176	2
39	2727	13.889177300176	2
39	2727	13.889177300176	0
39	2730	13.889177300176	0
39	2730	13.889177300176	0
39	2736	13.889385300176	0
39	2736	13.889385300176	0
39	2764	13.989177300176	0
39	2764	13.989177300176	2
39	2765	13.989177300176	2
39	2765	13.989177300176	0
39	2768	13.989177300176	0
39	2768	13.989177300176	0
39	2774	13.989385300176	0
39	2774	13.989385300176	0
39	2802	14.089177300176	0
39	2802	14.089177300176	2
39	2803	14.089177300176	2
39	2803	14.089177300176	0
39	2806	14.089177300176	0
39	2806	14.089177300176	0
39	2812	14.089385300176	0
39	2812	14.089385300176	0
39	2840	14.189177300176	0
39	2840	14.189177300176	2
39	2841	14.189177300176	2
39	2841	14.189177300176	0
39	2844	14.189177300176	0
39	2844	14.189177300176	0
39	2850	14.189385300176	0
39	2850	14.189385300176	0
39	2878	14.289177300176	0
39	2878	14.289177300176	2
39	2879	14.289177300176	2
39	2879	14.289177300176	0
39	2882	14.289177300176	0
39	2882	14.289177300176	0
39	2888	14.289385300176	0
39	2888	14.289385300176	0
39	2916	14.389177300176	0
39	2916	14.389177300176	2
39	2917	14.389177300176	2
39	2917	14.389177300176	0
39	2920	14.389177300176	0
39	2920	14.389177300176	0
39	2926	14.389385300176	0
39	2926	14.389385300176	0
39	2954	14.489177300176	0
39	2954	14.489177300176	2
39	2955	14.489177300176	2
39	2955	14.489177300176	0
39	2958	14.489177300176	0
39	2958	14.489177300176	0
39	2964	14.489385300176	0
39	2964	14.489385300176	0
39	2992	14.589177300176	0
39	2992	14.589177300176	2
39	2993	14.589177300176	2
39	2993	14.589177300176	0
39	2996	14.589177300176	0
39	2996	14.589177300176	0
39	3002	14.589385300176	0
39	3002	14.589385300176	0
39	3030	14.689177300176	0
39	3030	14.689177300176	2
39	3031	14.689177300176	2
39	3031	14.689177300176	0
39	3034	14.689177300176	0
39	3034	14.689177300176	0
39	3040	14.689385300176	0
39	3040	14.689385300176	0
39	3068	14.789177300176	0
39	3068	14.789177300176	2
39	3069	14.789177300176	2
39	3069	14.789177300176	0
39	3072	14.789177300176	0
39	3072	14.789177300176	0
39	3078	14.789385300176	0
39	3078	14.789385300176	0
39	3106	14.889177300176	0
39	3106	14.889177300176	2
39	3107	14.889177300176	2
39	3107	14.889177300176	0
39	3110	14.889177300176	0
39	3110	14.889177300176	0
39	3116	14.889385300176	0
39	3116	14.889385300176	0
39	3144	14.989177300176	0
39	3144	14.989177300176	2
39	3145	14.989177300176	2
39	3145	14.989177300176	0
39	3148	14.989177300176	0
39	3148	14.989177300176	0
39	3154	14.989385300176	0
39	3154	14.989385300176	0
39	3182	15.089177300176	0
39	3182	15.089177300176	2
39	3183	15.089177300176	2
39	3183	15.089177300176	0
39	3186	15.089177300176	0
39	3186	15.089177300176	0
39	3192	15.089385300176	0
39	3192	15.089385300176	0
39	3220	15.189177300176	0
39	3220	15.189177300176	2
39	3221	15.189177300176	2
39	3221	15.189177300176	0
39	3224	15.189177300176	0
39	3224	15.189177300176	0
39	3230	15.189385300176	0
39	3230	15.189385300176	0
39	3258	15.289177300176	0
39	3258	15.289177300176	2
39	3259	15.289177300176	2
39	3259	15.289177300176	0
39	3262	15.289177300176	0
39	3262	15.289177300176	0
39	3268	15.289385300176	0
39	3268	15.289385300176	0
39	3296	15.389177300176	0
39	3296	15.389177300176	2
39	3297	15.389177300176	2
39	3297	15.389177300176	0
39	3300	15.389177300176	0
39	3300	15.389177300176	0
39	3306	15.389385300176	0
39	3306	15.389385300176	0
39	3334	15.489177300176	0
39	3334	15.489177300176	2
39	3335	15.489177300176	2
39	3335	15.489177300176	0
39	3338	15.489177300176	0
39	3338	15.489177300176	0
39	3344	15.489385300176	0
39	3344	15.489385300176	0
39	3372	15.589177300176	0
39	3372	15.589177300176	2
39	3373	15.589177300176	2
39	3373	15.589177300176	0
39	3376	15.589177300176	0
39	3376	15.589177300176	0
39	3382	15.589385300176	0
39	3382	15.589385300176	0
39	3410	15.689177300176	0
39	3410	15.689177300176	2
39	3411	15.689177300176	2
39	3411	15.689177300176	0
39	3414	15.689177300176	0
39	3414	15.689177300176	0
39	3420	15.689385300176	0
39	3420	15.689385300176	0
39	3484	16.189177300176	0
39	3484	16.189177300176	2
39	3485	16.189177300176	2
39	3485	16.189177300176	0
39	3488	16.189177300176	0
39	3488	16.189177300176	0
39	3494	16.189385300176	0
39	3494	16.189385300176	0
39	3543	16.195908286415	0
39	3543	16.195908286415	0
39	3559	16.196052286415	0
39	3559	16.196052286415	0
39	3561	16.196052412226	0
39	3561	16.196052412226	0
39	3611	16.689177300176	0
39	3611	16.689177300176	2
39	3612	16.689177300176	2
39	3612	16.689177300176	0
39	3615	16.689177300176	0
39	3615	16.689177300176	0
39	3621	16.689385300176	0
39	3621	16.689385300176	0
39	3685	17.189177300176	0
39	3685	17.189177300176	2
39	3686	17.189177300176	2
39	3686	17.189177300176	0
39	3689	17.189177300176	0
39	3689	17.189177300176	0
39	3695	17.189385300176	0
39	3695	17.189385300176	0
39	3759	17.689177300176	0
39	3759	17.689177300176	2
39	3760	17.689177300176	2
39	3760	17.689177300176	0
39	3763	17.689177300176	0
39	3763	17.689177300176	0
39	3769	17.689385300176	0
39	3769	17.689385300176	0
39	3833	18.189177300176	0
39	3833	18.189177300176	2
39	3834	18.189177300176	2
39	3834	18.189177300176	0
39	3837	18.189177300176	0
39	3837	18.189177300176	0
39	3843	18.189385300176	0
39	3843	18.189385300176	0
39	3907	18.689177300176	0
39	3907	18.689177300176	2
39	3908	18.689177300176	2
39	3908	18.689177300176	0
39	3911	18.689177300176	0
39	3911	18.689177300176	0
39	3917	18.689385300176	0
39	3917	18.689385300176	0
39	3981	19.189177300176	0
39	3981	19.189177300176	2
39	3982	19.189177300176	2
39	3982	19.189177300176	0
39	3985	19.189177300176	0
39	3985	19.189177300176	0
39	3991	19.189385300176	0
39	3991	19.189385300176	0
39	4047	19.248067544429	0
39	4047	19.248067544429	0
39	4063	19.248211544429	0
39	4063	19.248211544429	0
39	4065	19.248211670635	0
39	4065	19.248211670635	0
39	4108	19.689177300176	0
39	4108	19.689177300176	2
39	4109	19.689177300176	2
39	4109	19.689177300176	0
39	4112	19.689177300176	0
39	4112	19.689177300176	0
39	4118	19.689385300176	0
39	4118	19.689385300176	0
39	4182	20.189177300176	0
39	4182	20.189177300176	2
39	4183	20.189177300176	2
39	4183	20.189177300176	0
39	4186	20.189177300176	0
39	4186	20.189177300176	0
39	4192	20.189385300176	0
39	4192	20.189385300176	0
39	4256	20.689177300176	0
39	4256	20.689177300176	2
39	4257	20.689177300176	2
39	4257	20.689177300176	0
39	4260	20.689177300176	0
39	4260	20.689177300176	0
39	4266	20.689385300176	0
39	4266	20.689385300176	0
39	4330	21.189177300176	0
39	4330	21.189177300176	2
39	4331	21.189177300176	2
39	4331	21.189177300176	0
39	4334	21.189177300176	0
39	4334	21.189177300176	0
39	4340	21.189385300176	0
39	4340	21.189385300176	0
39	4404	21.689177300176	0
39	4404	21.689177300176	2
39	4405	21.689177300176	2
39	4405	21.689177300176	0
39	4408	21.689177300176	0
39	4408	21.689177300176	0
39	4414	21.689385300176	0
39	4414	21.689385300176	0
39	4478	22.189177300176	0
39	4478	22.189177300176	2
39	4479	22.189177300176	2
39	4479	22.189177300176	0
39	4482	22.189177300176	0
39	4482	22.189177300176	0
39	4488	22.189385300176	0
39	4488	22.189385300176	0
39	4545	22.279937794436	0
39	4545	22.279937794436	0
39	4561	22.280081794436	0
39	4561	22.280081794436	0
39	4563	22.280081920846	0
39	4563	22.280081920846	0
39	4605	22.689177300176	0
39	4605	22.689177300176	2
39	4606	22.689177300176	2
39	4606	22.689177300176	0
39	4609	22.689177300176	0
39	4609	22.689177300176	0
39	4615	22.689385300176	0
39	4615	22.689385300176	0
39	4679	23.189177300176	0
39	4679	23.189177300176	2
39	4680	23.189177300176	2
39	4680	23.189177300176	0
39	4683	23.189177300176	0
39	4683	23.189177300176	0
39	4689	23.189385300176	0
39	4689	23.189385300176	0
39	4753	23.689177300176	0
39	4753	23.689177300176	2
39	4754	23.689177300176	2
39	4754	23.689177300176	0
39	4757	23.689177300176	0
39	4757	23.689177300176	0
39	4763	23.689385300176	0
39	4763	23.689385300176	0
39	4827	24.189177300176	0
39	4827	24.189177300176	2
39	4828	24.189177300176	2
39	4828	24.189177300176	0
39	4831	24.189177300176	0
39	4831	24.189177300176	0
39	4837	24.189385300176	0
39	4837	24.189385300176	0
39	4893	24.689177300176	0
39	4893	24.689177300176	2
39	4894	24.689177300176	2
39	4894	24.689177300176	0
39	4897	24.689177300176	0
39	4897	24.689177300176	0
39	4903	24.689385300176	0
39	4903	24.689385300176	0
40	255	3.1	0
40	255	3.1	0
40	314	3.689177300176	0
40	314	3.689177300176	0
40	320	3.689385300176	0
40	320	3.689385300176	0
40	388	4.189177300176	0
40	388	4.189177300176	0
40	394	4.189385300176	0
40	394	4.189385300176	0
40	462	4.689177300176	0
40	462	4.689177300176	0
40	468	4.689385300176	0
40	468	4.689385300176	0
40	536	5.189177300176	0
40	536	5.189177300176	0
40	542	5.189385300176	0
40	542	5.189385300176	0
40	610	5.689177300176	0
40	610	5.689177300176	0
40	616	5.689385300176	0
40	616	5.689385300176	0
40	684	6.189177300176	0
40	684	6.189177300176	0
40	690	6.189385300176	0
40	690	6.189385300176	0
40	781	6.616260195822	0
40	781	6.616260195822	0
40	797	6.616404195822	0
40	797	6.616404195822	0
40	799	6.616404267511	0
40	799	6.616404267511	0
40	812	6.689177300176	0
40	812	6.689177300176	0
40	818	6.689385300176	0
40	818	6.689385300176	0
40	886	7.189177300176	0
40	886	7.189177300176	0
40	892	7.189385300176	0
40	892	7.189385300176	0
40	960	7.689177300176	0
40	960	7.689177300176	0
40	966	7.689385300176	0
40	966	7.689385300176	0
40	1034	8.189177300176	0
40	1034	8.189177300176	0
40	1040	8.189385300176	0
40	1040	8.189385300176	0
40	1108	8.689177300176	0
40	1108	8.689177300176	0
40	1114	8.689385300176	0
40	1114	8.689385300176	0
40	1182	9.189177300176	0
40	1182	9.189177300176	0
40	1188	9.189385300176	0
40	1188	9.189385300176	0
40	1256	9.689177300176	0
40	1256	9.689177300176	0
40	1262	9.689385300176	0
40	1262	9.689385300176	0
40	1323	9.870287052284	0
40	1323	9.870287052284	0
40	1339	9.870431052284	0
40	1339	9.870431052284	0
40	1345	9.870431176826	0
40	1345	9.870431176826	0
40	1384	10.189177300176	0
40	1384	10.189177300176	0
40	1390	10.189385300176	0
40	1390	10.189385300176	0
40	1458	10.689177300176	0
40	1458	10.689177300176	0
40	1464	10.689385300176	0
40	1464	10.689385300176	0
40	1496	10.789177300176	0
40	1496	10.789177300176	0
40	1502	10.789385300176	0
40	1502	10.789385300176	0
40	1534	10.889177300176	0
40	1534	10.889177300176	0
40	1540	10.889385300176	0
40	1540	10.889385300176	0
40	1572	10.989177300176	0
40	1572	10.989177300176	0
40	1578	10.989385300176	0
40	1578	10.989385300176	0
40	1610	11.089177300176	0
40	1610	11.089177300176	0
40	1616	11.089385300176	0
40	1616	11.089385300176	0
40	1648	11.189177300176	0
40	1648	11.189177300176	0
40	1654	11.189385300176	0
40	1654	11.189385300176	0
40	1686	11.289177300176	0
40	1686	11.289177300176	0
40	1692	11.289385300176	0
40	1692	11.289385300176	0
40	1724	11.389177300176	0
40	1724	11.389177300176	0
40	1730	11.389385300176	0
40	1730	11.389385300176	0
40	1762	11.489177300176	0
40	1762	11.489177300176	0
40	1768	11.489385300176	0
40	1768	11.489385300176	0
40	1800	11.589177300176	0
40	1800	11.589177300176	0
40	1806	11.589385300176	0
40	1806	11.589385300176	0
40	1838	11.689177300176	0
40	1838	11.689177300176	0
40	1844	11.689385300176	0
40	1844	11.689385300176	0
40	1876	11.789177300176	0
40	1876	11.789177300176	0
40	1882	11.789385300176	0
40	1882	11.789385300176	0
40	1914	11.889177300176	0
40	1914	11.889177300176	0
40	1920	11.889385300176	0
40	1920	11.889385300176	0
40	1952	11.989177300176	0
40	1952	11.989177300176	0
40	1958	11.989385300176	0
40	1958	11.989385300176	0
40	1990	12.089177300176	0
40	1990	12.089177300176	0
40	1996	12.089385300176	0
40	1996	12.089385300176	0
40	2028	12.189177300176	0
40	2028	12.189177300176	0
40	2034	12.189385300176	0
40	2034	12.189385300176	0
40	2066	12.289177300176	0
40	2066	12.289177300176	0
40	2072	12.289385300176	0
40	2072	12.289385300176	0
40	2104	12.389177300176	0
40	2104	12.389177300176	0
40	2110	12.389385300176	0
40	2110	12.389385300176	0
40	2142	12.489177300176	0
40	2142	12.489177300176	0
40	2148	12.489385300176	0
40	2148	12.489385300176	0
40	2180	12.589177300176	0
40	2180	12.589177300176	0
40	2186	12.589385300176	0
40	2186	12.589385300176	0
40	2218	12.689177300176	0
40	2218	12.689177300176	0
40	2224	12.689385300176	0
40	2224	12.689385300176	0
40	2256	12.789177300176	0
40	2256	12.789177300176	0
40	2262	12.789385300176	0
40	2262	12.789385300176	0
40	2294	12.889177300176	0
40	2294	12.889177300176	0
40	2300	12.889385300176	0
40	2300	12.889385300176	0
40	2332	12.989177300176	0
40	2332	12.989177300176	0
40	2338	12.989385300176	0
40	2338	12.989385300176	0
40	2370	13.089177300176	0
40	2370	13.089177300176	0
40	2376	13.089385300176	0
40	2376	13.089385300176	0
40	2428	13.155880044587	0
40	2428	13.155880044587	0
40	2453	13.156024166575	0
40	2453	13.156024166575	0
40	2464	13.189177300176	0
40	2464	13.189177300176	0
40	2470	13.189385300176	0
40	2470	13.189385300176	0
40	2502	13.289177300176	0
40	2502	13.289177300176	0
40	2508	13.289385300176	0
40	2508	13.289385300176	0
40	2540	13.389177300176	0
40	2540	13.389177300176	0
40	2546	13.389385300176	0
40	2546	13.389385300176	0
40	2578	13.489177300176	0
40	2578	13.489177300176	0
40	2584	13.489385300176	0
40	2584	13.489385300176	0
40	2616	13.589177300176	0
40	2616	13.589177300176	0
40	2622	13.589385300176	0
40	2622	13.589385300176	0
40	2654	13.689177300176	0
40	2654	13.689177300176	0
40	2660	13.689385300176	0
40	2660	13.689385300176	0
40	2692	13.789177300176	0
40	2692	13.789177300176	0
40	2698	13.789385300176	0
40	2698	13.789385300176	0
40	2730	13.889177300176	0
40	2730	13.889177300176	0
40	2736	13.889385300176	0
40	2736	13.889385300176	0
40	2768	13.989177300176	0
40	2768	13.989177300176	0
40	2774	13.989385300176	0
40	2774	13.989385300176	0
40	2806	14.089177300176	0
40	2806	14.089177300176	0
40	2812	14.089385300176	0
40	2812	14.089385300176	0
40	2844	14.189177300176	0
40	2844	14.189177300176	0
40	2850	14.189385300176	0
40	2850	14.189385300176	0
40	2882	14.289177300176	0
40	2882	14.289177300176	0
40	2888	14.289385300176	0
40	2888	14.289385300176	0
40	2920	14.389177300176	0
40	2920	14.389177300176	0
40	2926	14.389385300176	0
40	2926	14.389385300176	0
40	2958	14.489177300176	0
40	2958	14.489177300176	0
40	2964	14.489385300176	0
40	2964	14.489385300176	0
40	2996	14.589177300176	0
40	2996	14.589177300176	0
40	3002	14.589385300176	0
40	3002	14.589385300176	0
40	3034	14.689177300176	0
40	3034	14.689177300176	0
40	3040	14.689385300176	0
40	3040	14.689385300176	0
40	3072	14.789177300176	0
40	3072	14.789177300176	0
40	3078	14.789385300176	0
40	3078	14.789385300176	0
40	3110	14.889177300176	0
40	3110	14.889177300176	0
40	3116	14.889385300176	0
40	3116	14.889385300176	0
40	3148	14.989177300176	0
40	3148	14.989177300176	0
40	3154	14.989385300176	0
40	3154	14.989385300176	0
40	3186	15.089177300176	0
40	3186	15.089177300176	0
40	3192	15.089385300176	0
40	3192	15.089385300176	0
40	3224	15.189177300176	0
40	3224	15.189177300176	0
40	3230	15.189385300176	0
40	3230	15.189385300176	0
40	3262	15.289177300176	0
40	3262	15.289177300176	0
40	3268	15.289385300176	0
40	3268	15.289385300176	0
40	3300	15.389177300176	0
40	3300	15.389177300176	0
40	3306	15.389385300176	0
40	3306	15.389385300176	0
40	3338	15.489177300176	0
40	3338	15.489177300176	0
40	3344	15.489385300176	0
40	3344	15.489385300176	0
40	3376	15.589177300176	0
40	3376	15.589177300176	0
40	3382	15.589385300176	0
40	3382	15.589385300176	0
40	3414	15.689177300176	0
40	3414	15.689177300176	0
40	3420	15.689385300176	0
40	3420	15.689385300176	0
40	3488	16.189177300176	0
40	3488	16.189177300176	0
40	3494	16.189385300176	0
40	3494	16.189385300176	0
40	3543	16.195908286415	0
40	3543	16.195908286415	0
40	3559	16.196052286415	0
40	3559	16.196052286415	0
40	3561	16.196052412226	0
40	3561	16.196052412226	0
40	3615	16.689177300176	0
40	3615	16.689177300176	0
40	3621	16.689385300176	0
40	3621	16.689385300176	0
40	3689	17.189177300176	0
40	3689	17.189177300176	0
40	3695	17.189385300176	0
40	3695	17.189385300176	0
40	3763	17.689177300176	0
40	3763	17.689177300176	0
40	3769	17.689385300176	0
40	3769	17.689385300176	0
40	3837	18.189177300176	0
40	3837	18.189177300176	0
40	3843	18.189385300176	0
40	3843	18.189385300176	0
40	3911	18.689177300176	0
40	3911	18.689177300176	0
40	3917	18.689385300176	0
40	3917	18.689385300176	0
40	3985	19.189177300176	0
40	3985	19.189177300176	0
40	3991	19.189385300176	0
40	3991	19.189385300176	0
40	4047	19.248067544429	0
40	4047	19.248067544429	0
40	4063	19.248211544429	0
40	4063	19.248211544429	0
40	4065	19.248211670635	0
40	4065	19.248211670635	0
40	4112	19.689177300176	0
40	4112	19.689177300176	0
40	4118	19.689385300176	0
40	4118	19.689385300176	0
40	4186	20.189177300176	0
40	4186	20.189177300176	0
40	4192	20.189385300176	0
40	4192	20.189385300176	0
40	4260	20.689177300176	0
40	4260	20.689177300176	0
40	4266	20.689385300176	0
40	4266	20.689385300176	0
40	4334	21.189177300176	0
40	4334	21.189177300176	0
40	4340	21.189385300176	0
40	4340	21.189385300176	0
40	4408	21.689177300176	0
40	4408	21.689177300176	0
40	4414	21.689385300176	0
40	4414	21.689385300176	0
40	4482	22.189177300176	0
40	4482	22.189177300176	0
40	4488	22.189385300176	0
40	4488	22.189385300176	0
40	4545	22.279937794436	0
40	4545	22.279937794436	0
40	4561	22.280081794436	0
40	4561	22.280081794436	0
40	4563	22.280081920846	0
40	4563	22.280081920846	0
40	4609	22.689177300176	0
40	4609	22.689177300176	0
40	4615	22.689385300176	0
40	4615	22.689385300176	0
40	4683	23.189177300176	0
40	4683	23.189177300176	0
40	4689	23.189385300176	0
40	4689	23.189385300176	0
40	4757	23.689177300176	0
40	4757	23.689177300176	0
40	4763	23.689385300176	0
40	4763	23.689385300176	0
40	4831	24.189177300176	0
40	4831	24.189177300176	0
40	4837	24.189385300176	0
40	4837	24.189385300176	0
40	4897	24.689177300176	0
40	4897	24.689177300176	0
40	4903	24.689385300176	0
40	4903	24.689385300176	0
34	255	3.1	180
43	314	3.689177300176	1
43	315	3.689177300176	2
43	319	3.689385300176	1
43	320	3.689385300176	0
43	388	4.189177300176	1
43	389	4.189177300176	2
43	393	4.189385300176	1
43	394	4.189385300176	0
43	462	4.689177300176	1
43	463	4.689177300176	2
43	467	4.689385300176	1
43	468	4.689385300176	0
43	536	5.189177300176	1
43	537	5.189177300176	2
43	541	5.189385300176	1
43	542	5.189385300176	0
43	610	5.689177300176	1
43	611	5.689177300176	2
43	615	5.689385300176	1
43	616	5.689385300176	0
43	684	6.189177300176	1
43	685	6.189177300176	2
43	689	6.189385300176	1
43	690	6.189385300176	0
43	812	6.689177300176	1
43	813	6.689177300176	2
43	817	6.689385300176	1
43	818	6.689385300176	0
43	886	7.189177300176	1
43	887	7.189177300176	2
43	891	7.189385300176	1
43	892	7.189385300176	0
43	960	7.689177300176	1
43	961	7.689177300176	2
43	965	7.689385300176	1
43	966	7.689385300176	0
43	1034	8.189177300176	1
43	1035	8.189177300176	2
43	1039	8.189385300176	1
43	1040	8.189385300176	0
43	1108	8.689177300176	1
43	1109	8.689177300176	2
43	1113	8.689385300176	1
43	1114	8.689385300176	0
43	1182	9.189177300176	1
43	1183	9.189177300176	2
43	1187	9.189385300176	1
43	1188	9.189385300176	0
43	1256	9.689177300176	1
43	1257	9.689177300176	2
43	1261	9.689385300176	1
43	1262	9.689385300176	0
43	1384	10.189177300176	1
43	1385	10.189177300176	2
43	1389	10.189385300176	1
43	1390	10.189385300176	0
43	1458	10.689177300176	1
43	1459	10.689177300176	2
43	1463	10.689385300176	1
43	1464	10.689385300176	0
43	1496	10.789177300176	1
43	1497	10.789177300176	2
43	1501	10.789385300176	1
43	1502	10.789385300176	0
43	1534	10.889177300176	1
43	1535	10.889177300176	2
43	1539	10.889385300176	1
43	1540	10.889385300176	0
43	1572	10.989177300176	1
43	1573	10.989177300176	2
43	1577	10.989385300176	1
43	1578	10.989385300176	0
43	1610	11.089177300176	1
43	1611	11.089177300176	2
43	1615	11.089385300176	1
43	1616	11.089385300176	0
43	1648	11.189177300176	1
43	1649	11.189177300176	2
43	1653	11.189385300176	1
43	1654	11.189385300176	0
43	1686	11.289177300176	1
43	1687	11.289177300176	2
43	1691	11.289385300176	1
43	1692	11.289385300176	0
43	1724	11.389177300176	1
43	1725	11.389177300176	2
43	1729	11.389385300176	1
43	1730	11.389385300176	0
43	1762	11.489177300176	1
43	1763	11.489177300176	2
43	1767	11.489385300176	1
43	1768	11.489385300176	0
43	1800	11.589177300176	1
43	1801	11.589177300176	2
43	1805	11.589385300176	1
43	1806	11.589385300176	0
43	1838	11.689177300176	1
43	1839	11.689177300176	2
43	1843	11.689385300176	1
43	1844	11.689385300176	0
43	1876	11.789177300176	1
43	1877	11.789177300176	2
43	1881	11.789385300176	1
43	1882	11.789385300176	0
43	1914	11.889177300176	1
43	1915	11.889177300176	2
43	1919	11.889385300176	1
43	1920	11.889385300176	0
43	1952	11.989177300176	1
43	1953	11.989177300176	2
43	1957	11.989385300176	1
43	1958	11.989385300176	0
43	1990	12.089177300176	1
43	1991	12.089177300176	2
43	1995	12.089385300176	1
43	1996	12.089385300176	0
43	2028	12.189177300176	1
43	2029	12.189177300176	2
43	2033	12.189385300176	1
43	2034	12.189385300176	0
43	2066	12.289177300176	1
43	2067	12.289177300176	2
43	2071	12.289385300176	1
43	2072	12.289385300176	0
43	2104	12.389177300176	1
43	2105	12.389177300176	2
43	2109	12.389385300176	1
43	2110	12.389385300176	0
43	2142	12.489177300176	1
43	2143	12.489177300176	2
43	2147	12.489385300176	1
43	2148	12.489385300176	0
43	2180	12.589177300176	1
43	2181	12.589177300176	2
43	2185	12.589385300176	1
43	2186	12.589385300176	0
43	2218	12.689177300176	1
43	2219	12.689177300176	2
43	2223	12.689385300176	1
43	2224	12.689385300176	0
43	2256	12.789177300176	1
43	2257	12.789177300176	2
43	2261	12.789385300176	1
43	2262	12.789385300176	0
43	2294	12.889177300176	1
43	2295	12.889177300176	2
43	2299	12.889385300176	1
43	2300	12.889385300176	0
43	2332	12.989177300176	1
43	2333	12.989177300176	2
43	2337	12.989385300176	1
43	2338	12.989385300176	0
43	2370	13.089177300176	1
43	2371	13.089177300176	2
43	2375	13.089385300176	1
43	2376	13.089385300176	0
43	2464	13.189177300176	1
43	2465	13.189177300176	2
43	2469	13.189385300176	1
43	2470	13.189385300176	0
43	2502	13.289177300176	1
43	2503	13.289177300176	2
43	2507	13.289385300176	1
43	2508	13.289385300176	0
43	2540	13.389177300176	1
43	2541	13.389177300176	2
43	2545	13.389385300176	1
43	2546	13.389385300176	0
43	2578	13.489177300176	1
43	2579	13.489177300176	2
43	2583	13.489385300176	1
43	2584	13.489385300176	0
43	2616	13.589177300176	1
43	2617	13.589177300176	2
43	2621	13.589385300176	1
43	2622	13.589385300176	0
43	2654	13.689177300176	1
43	2655	13.689177300176	2
43	2659	13.689385300176	1
43	2660	13.689385300176	0
43	2692	13.789177300176	1
43	2693	13.789177300176	2
43	2697	13.789385300176	1
43	2698	13.789385300176	0
43	2730	13.889177300176	1
43	2731	13.889177300176	2
43	2735	13.889385300176	1
43	2736	13.889385300176	0
43	2768	13.989177300176	1
43	2769	13.989177300176	2
43	2773	13.989385300176	1
43	2774	13.989385300176	0
43	2806	14.089177300176	1
43	2807	14.089177300176	2
43	2811	14.089385300176	1
43	2812	14.089385300176	0
43	2844	14.189177300176	1
43	2845	14.189177300176	2
43	2849	14.189385300176	1
43	2850	14.189385300176	0
43	2882	14.289177300176	1
43	2883	14.289177300176	2
43	2887	14.289385300176	1
43	2888	14.289385300176	0
43	2920	14.389177300176	1
43	2921	14.389177300176	2
43	2925	14.389385300176	1
43	2926	14.389385300176	0
43	2958	14.489177300176	1
43	2959	14.489177300176	2
43	2963	14.489385300176	1
43	2964	14.489385300176	0
43	2996	14.589177300176	1
43	2997	14.589177300176	2
43	3001	14.589385300176	1
43	3002	14.589385300176	0
43	3034	14.689177300176	1
43	3035	14.689177300176	2
43	3039	14.689385300176	1
43	3040	14.689385300176	0
43	3072	14.789177300176	1
43	3073	14.789177300176	2
43	3077	14.789385300176	1
43	3078	14.789385300176	0
43	3110	14.889177300176	1
43	3111	14.889177300176	2
43	3115	14.889385300176	1
43	3116	14.889385300176	0
43	3148	14.989177300176	1
43	3149	14.989177300176	2
43	3153	14.989385300176	1
43	3154	14.989385300176	0
43	3186	15.089177300176	1
43	3187	15.089177300176	2
43	3191	15.089385300176	1
43	3192	15.089385300176	0
43	3224	15.189177300176	1
43	3225	15.189177300176	2
43	3229	15.189385300176	1
43	3230	15.189385300176	0
43	3262	15.289177300176	1
43	3263	15.289177300176	2
43	3267	15.289385300176	1
43	3268	15.289385300176	0
43	3300	15.389177300176	1
43	3301	15.389177300176	2
43	3305	15.389385300176	1
43	3306	15.389385300176	0
43	3338	15.489177300176	1
43	3339	15.489177300176	2
43	3343	15.489385300176	1
43	3344	15.489385300176	0
43	3376	15.589177300176	1
43	3377	15.589177300176	2
43	3381	15.589385300176	1
43	3382	15.589385300176	0
43	3414	15.689177300176	1
43	3415	15.689177300176	2
43	3419	15.689385300176	1
43	3420	15.689385300176	0
43	3488	16.189177300176	1
43	3489	16.189177300176	2
43	3493	16.189385300176	1
43	3494	16.189385300176	0
43	3615	16.689177300176	1
43	3616	16.689177300176	2
43	3620	16.689385300176	1
43	3621	16.689385300176	0
43	3689	17.189177300176	1
43	3690	17.189177300176	2
43	3694	17.189385300176	1
43	3695	17.189385300176	0
43	3763	17.689177300176	1
43	3764	17.689177300176	2
43	3768	17.689385300176	1
43	3769	17.689385300176	0
43	3837	18.189177300176	1
43	3838	18.189177300176	2
43	3842	18.189385300176	1
43	3843	18.189385300176	0
43	3911	18.689177300176	1
43	3912	18.689177300176	2
43	3916	18.689385300176	1
43	3917	18.689385300176	0
43	3985	19.189177300176	1
43	3986	19.189177300176	2
43	3990	19.189385300176	1
43	3991	19.189385300176	0
43	4112	19.689177300176	1
43	4113	19.689177300176	2
43	4117	19.689385300176	1
43	4118	19.689385300176	0
43	4186	20.189177300176	1
43	4187	20.189177300176	2
43	4191	20.189385300176	1
43	4192	20.189385300176	0
43	4260	20.689177300176	1
43	4261	20.689177300176	2
43	4265	20.689385300176	1
43	4266	20.689385300176	0
43	4334	21.189177300176	1
43	4335	21.189177300176	2
43	4339	21.189385300176	1
43	4340	21.189385300176	0
43	4408	21.689177300176	1
43	4409	21.689177300176	2
43	4413	21.689385300176	1
43	4414	21.689385300176	0
43	4482	22.189177300176	1
43	4483	22.189177300176	2
43	4487	22.189385300176	1
43	4488	22.189385300176	0
43	4609	22.689177300176	1
43	4610	22.689177300176	2
43	4614	22.689385300176	1
43	4615	22.689385300176	0
43	4683	23.189177300176	1
43	4684	23.189177300176	2
43	4688	23.189385300176	1
43	4689	23.189385300176	0
43	4757	23.689177300176	1
43	4758	23.689177300176	2
43	4762	23.689385300176	1
43	4763	23.689385300176	0
43	4831	24.189177300176	1
43	4832	24.189177300176	2
43	4836	24.189385300176	1
43	4837	24.189385300176	0
43	4897	24.689177300176	1
43	4898	24.689177300176	2
43	4902	24.689385300176	1
43	4903	24.689385300176	0
35	255	3.1	1
35	314	3.689177300176	0
35	320	3.689385300176	1
35	388	4.189177300176	0
35	394	4.189385300176	1
35	462	4.689177300176	0
35	468	4.689385300176	1
35	536	5.189177300176	0
35	542	5.189385300176	1
35	610	5.689177300176	0
35	616	5.689385300176	1
35	684	6.189177300176	0
35	690	6.189385300176	1
35	781	6.616260195822	3
35	796	6.616404195822	2
35	799	6.616404267511	1
35	812	6.689177300176	0
35	818	6.689385300176	1
35	886	7.189177300176	0
35	892	7.189385300176	1
35	960	7.689177300176	0
35	966	7.689385300176	1
35	1034	8.189177300176	0
35	1040	8.189385300176	1
[...]
6	2311	12.889385444298	0
6	2336	12.989177451695	0
6	2336	12.989177451695	0
6	2349	12.989385451695	0
6	2349	12.989385451695	0
6	2374	13.089177459212	0
6	2374	13.089177459212	0
6	2387	13.089385459212	0
6	2387	13.089385459212	0
6	2416	13.15588	0
6	2416	13.15588	0
6	2451	13.156024125785	0
6	2451	13.156024125785	0
6	2468	13.189177466751	0
6	2468	13.189177466751	0
6	2481	13.189385466751	0
6	2481	13.189385466751	0
6	2506	13.2891774744	0
6	2506	13.2891774744	0
6	2519	13.2893854744	0
6	2519	13.2893854744	0
6	2544	13.389177482106	0
6	2544	13.389177482106	0
6	2557	13.389385482106	0
6	2557	13.389385482106	0
6	2582	13.489177489862	0
6	2582	13.489177489862	0
6	2595	13.489385489862	0
6	2595	13.489385489862	0
6	2620	13.589177497654	0
6	2620	13.589177497654	0
6	2633	13.589385497654	0
6	2633	13.589385497654	0
6	2658	13.689177505515	0
6	2658	13.689177505515	0
6	2671	13.689385505515	0
6	2671	13.689385505515	0
6	2696	13.789177513432	0
6	2696	13.789177513432	0
6	2709	13.789385513432	0
6	2709	13.789385513432	0
6	2734	13.889177521438	0
6	2734	13.889177521438	0
6	2747	13.889385521438	0
6	2747	13.889385521438	0
6	2772	13.989177529511	0
6	2772	13.989177529511	0
6	2785	13.989385529511	0
6	2785	13.989385529511	0
6	2810	14.089177537674	0
6	2810	14.089177537674	0
6	2823	14.089385537674	0
6	2823	14.089385537674	0
6	2848	14.18917754589	0
6	2848	14.18917754589	0
6	2861	14.18938554589	0
6	2861	14.18938554589	0
6	2886	14.289177554198	0
6	2886	14.289177554198	0
6	2899	14.289385554198	0
6	2899	14.289385554198	0
6	2924	14.389177562485	0
6	2924	14.389177562485	0
6	2937	14.389385562485	0
6	2937	14.389385562485	0
6	2962	14.489177570839	0
6	2962	14.489177570839	0
6	2975	14.489385570839	0
6	2975	14.489385570839	0
6	3000	14.589177579178	0
6	3000	14.589177579178	0
6	3013	14.589385579178	0
6	3013	14.589385579178	0
6	3038	14.689177587465	0
6	3038	14.689177587465	0
6	3051	14.689385587465	0
6	3051	14.689385587465	0
6	3076	14.789177595766	0
6	3076	14.789177595766	0
6	3089	14.789385595766	0
6	3089	14.789385595766	0
6	3114	14.889177604117	0
6	3114	14.889177604117	0
6	3127	14.889385604117	0
6	3127	14.889385604117	0
6	3152	14.989177612439	0
6	3152	14.989177612439	0
6	3165	14.989385612439	0
6	3165	14.989385612439	0
6	3190	15.089177620772	0
6	3190	15.089177620772	0
6	3203	15.089385620772	0
6	3203	15.089385620772	0
6	3228	15.189177629085	0
6	3228	15.189177629085	0
6	3241	15.189385629085	0
6	3241	15.189385629085	0
6	3266	15.289177637408	0
6	3266	15.289177637408	0
6	3279	15.289385637408	0
6	3279	15.289385637408	0
6	3304	15.389177645733	0
6	3304	15.389177645733	0
6	3317	15.389385645733	0
6	3317	15.389385645733	0
6	3342	15.48917765407	0
6	3342	15.48917765407	0
6	3355	15.48938565407	0
6	3355	15.48938565407	0
6	3380	15.589177662419	0
6	3380	15.589177662419	0
6	3393	15.589385662419	0
6	3393	15.589385662419	0
6	3418	15.689177670747	0
6	3418	15.689177670747	0
6	3431	15.689385670747	0
6	3431	15.689385670747	0
6	3492	16.189177712402	0
6	3492	16.189177712402	0
6	3505	16.189385712402	0
6	3505	16.189385712402	0
6	3527	16.195908	0
6	3527	16.195908	0
6	3557	16.19605212604	0
6	3557	16.19605212604	0
6	3619	16.689177754084	0
6	3619	16.689177754084	0
6	3632	16.689385754084	0
6	3632	16.689385754084	0
6	3693	17.189177795706	0
6	3693	17.189177795706	0
6	3706	17.189385795706	0
6	3706	17.189385795706	0
6	3767	17.689177837413	0
6	3767	17.689177837413	0
6	3780	17.689385837413	0
6	3780	17.689385837413	0
6	3841	18.189177879081	0
6	3841	18.189177879081	0
6	3854	18.189385879081	0
6	3854	18.189385879081	0
6	3915	18.689177920783	0
6	3915	18.689177920783	0
6	3928	18.689385920783	0
6	3928	18.689385920783	0
6	3989	19.189177962461	0
6	3989	19.189177962461	0
6	4002	19.189385962461	0
6	4002	19.189385962461	0
6	4031	19.248067	0
6	4031	19.248067	0
6	4061	19.24821112628	0
6	4061	19.24821112628	0
6	4116	19.689178004201	0
6	4116	19.689178004201	0
6	4129	19.689386004201	0
6	4129	19.689386004201	0
6	4190	20.189178045896	0
6	4190	20.189178045896	0
6	4203	20.189386045896	0
6	4203	20.189386045896	0
6	4264	20.689178087581	0
6	4264	20.689178087581	0
6	4277	20.689386087581	0
6	4277	20.689386087581	0
6	4338	21.18917812928	0
6	4338	21.18917812928	0
6	4351	21.18938612928	0
6	4351	21.18938612928	0
6	4412	21.689178171024	0
6	4412	21.689178171024	0
6	4425	21.689386171024	0
6	4425	21.689386171024	0
6	4486	22.189178212723	0
6	4486	22.189178212723	0
6	4499	22.189386212723	0
6	4499	22.189386212723	0
6	4529	22.279937	0
6	4529	22.279937	0
6	4559	22.280081126447	0
6	4559	22.280081126447	0
6	4613	22.689178254348	0
6	4613	22.689178254348	0
6	4626	22.689386254348	0
6	4626	22.689386254348	0
6	4687	23.189178296082	0
6	4687	23.189178296082	0
6	4700	23.189386296082	0
6	4700	23.189386296082	0
6	4761	23.689178337799	0
6	4761	23.689178337799	0
6	4774	23.689386337799	0
6	4774	23.689386337799	0
6	5017	25.84267	0
6	5017	25.84267	0
6	5044	25.842814126713	0
6	5044	25.842814126713	0
6	5274	28.875104	0
6	5274	28.875104	0
6	5301	28.875248126921	0
6	5301	28.875248126921	0
6	5557	32.246717	0
6	5557	32.246717	0
6	5584	32.246861127156	0
6	5584	32.246861127156	0
6	5854	35.826252	0
6	5854	35.826252	0
6	5881	35.826396127538	0
6	5881	35.826396127538	0
7	2	0.1	0
7	2	0.1	0
7	212	2.895427	0
7	212	2.895427	0
7	239	2.895571020681	0
7	239	2.895571020681	0
7	318	3.689177622736	0
7	318	3.689177622736	0
7	331	3.689385622736	0
7	331	3.689385622736	0
7	391	4.189177607819	0
7	391	4.189177607819	0
7	400	4.189385607819	0
7	400	4.189385607819	0
7	465	4.689177586218	0
7	465	4.689177586218	0
7	474	4.689385586218	0
7	474	4.689385586218	0
7	539	5.189177563119	0
7	539	5.189177563119	0
7	548	5.189385563119	0
7	548	5.189385563119	0
7	613	5.689177540456	0
7	613	5.689177540456	0
7	622	5.689385540456	0
7	622	5.689385540456	0
7	687	6.189177518251	0
7	687	6.189177518251	0
7	696	6.189385518251	0
7	696	6.189385518251	0
7	765	6.61626	0
7	765	6.61626	0
7	795	6.616404075071	0
7	795	6.616404075071	0
7	815	6.689177496613	0
7	815	6.689177496613	0
7	824	6.689385496613	0
7	824	6.689385496613	0
7	889	7.189177475289	0
7	889	7.189177475289	0
7	898	7.189385475289	0
7	898	7.189385475289	0
7	963	7.689177454402	0
7	963	7.689177454402	0
7	972	7.689385454402	0
7	972	7.689385454402	0
7	1037	8.189177433913	0
7	1037	8.189177433913	0
7	1046	8.189385433913	0
7	1046	8.189385433913	0
7	1111	8.689177412434	0
7	1111	8.689177412434	0
7	1120	8.689385412434	0
7	1120	8.689385412434	0
7	1185	9.189177389446	0
7	1185	9.189177389446	0
7	1194	9.189385389446	0
7	1194	9.189385389446	0
7	1259	9.689177365197	0
7	1259	9.689177365197	0
7	1268	9.689385365197	0
7	1268	9.689385365197	0
7	1311	9.870287	0
7	1311	9.870287	0
7	1344	9.870431125971	0
7	1344	9.870431125971	0
7	1387	10.18917734038	0
7	1387	10.18917734038	0
7	1396	10.18938534038	0
7	1396	10.18938534038	0
7	1461	10.689177321546	0
7	1461	10.689177321546	0
7	1470	10.689385321546	0
7	1470	10.689385321546	0
7	1499	10.789177320867	0
7	1499	10.789177320867	0
7	1508	10.789385320867	0
7	1508	10.789385320867	0
7	1537	10.889177321928	0
7	1537	10.889177321928	0
7	1546	10.889385321928	0
7	1546	10.889385321928	0
7	1575	10.989177324552	0
7	1575	10.989177324552	0
7	1584	10.989385324552	0
7	1584	10.989385324552	0
7	1613	11.089177328348	0
7	1613	11.089177328348	0
7	1622	11.089385328348	0
7	1622	11.089385328348	0
7	1651	11.189177332939	0
7	1651	11.189177332939	0
7	1660	11.189385332939	0
7	1660	11.189385332939	0
7	1689	11.289177338089	0
7	1689	11.289177338089	0
7	1698	11.289385338089	0
7	1698	11.289385338089	0
7	1727	11.389177343619	0
7	1727	11.389177343619	0
7	1736	11.389385343619	0
7	1736	11.389385343619	0
7	1765	11.489177349383	0
7	1765	11.489177349383	0
7	1774	11.489385349383	0
7	1774	11.489385349383	0
7	1803	11.589177355403	0
7	1803	11.589177355403	0
7	1812	11.589385355403	0
7	1812	11.589385355403	0
7	1841	11.68917736159	0
7	1841	11.68917736159	0
7	1850	11.68938536159	0
7	1850	11.68938536159	0
7	1880	11.789177367935	0
7	1880	11.789177367935	0
7	1893	11.789385367935	0
7	1893	11.789385367935	0
7	1918	11.889177374393	0
7	1918	11.889177374393	0
7	1931	11.889385374393	0
7	1931	11.889385374393	0
7	1956	11.989177380968	0
7	1956	11.989177380968	0
7	1969	11.989385380968	0
7	1969	11.989385380968	0
7	1994	12.08917738767	0
7	1994	12.08917738767	0
7	2007	12.08938538767	0
7	2007	12.08938538767	0
7	2032	12.189177394458	0
7	2032	12.189177394458	0
7	2045	12.189385394458	0
7	2045	12.189385394458	0
7	2070	12.289177401337	0
7	2070	12.289177401337	0
7	2083	12.289385401337	0
7	2083	12.289385401337	0
7	2108	12.38917740831	0
7	2108	12.38917740831	0
7	2121	12.38938540831	0
7	2121	12.38938540831	0
7	2146	12.489177415336	0
7	2146	12.489177415336	0
7	2159	12.489385415336	0
7	2159	12.489385415336	0
7	2184	12.58917742244	0
7	2184	12.58917742244	0
7	2197	12.58938542244	0
7	2197	12.58938542244	0
7	2222	12.689177429656	0
7	2222	12.689177429656	0
7	2235	12.689385429656	0
7	2235	12.689385429656	0
7	2260	12.789177436942	0
7	2260	12.789177436942	0
7	2273	12.789385436942	0
7	2273	12.789385436942	0
7	2298	12.889177444298	0
7	2298	12.889177444298	0
7	2311	12.889385444298	0
7	2311	12.889385444298	0
7	2336	12.989177451695	0
7	2336	12.989177451695	0
7	2349	12.989385451695	0
7	2349	12.989385451695	0
7	2374	13.089177459212	0
7	2374	13.089177459212	0
7	2387	13.089385459212	0
7	2387	13.089385459212	0
7	2416	13.15588	0
7	2416	13.15588	0
7	2451	13.156024125785	0
7	2451	13.156024125785	0
7	2468	13.189177466751	0
7	2468	13.189177466751	0
7	2481	13.189385466751	0
7	2481	13.189385466751	0
7	2506	13.2891774744	0
7	2506	13.2891774744	0
7	2519	13.2893854744	0
7	2519	13.2893854744	0
7	2544	13.389177482106	0
7	2544	13.389177482106	0
7	2557	13.389385482106	0
7	2557	13.389385482106	0
7	2582	13.489177489862	0
7	2582	13.489177489862	0
7	2595	13.489385489862	0
7	2595	13.489385489862	0
7	2620	13.589177497654	0
7	2620	13.589177497654	0
7	2633	13.589385497654	0
7	2633	13.589385497654	0
7	2658	13.689177505515	0
7	2658	13.689177505515	0
7	2671	13.689385505515	0
7	2671	13.689385505515	0
7	2696	13.789177513432	0
7	2696	13.789177513432	0
7	2709	13.789385513432	0
7	2709	13.789385513432	0
7	2734	13.889177521438	0
7	2734	13.889177521438	0
7	2747	13.889385521438	0
7	2747	13.889385521438	0
7	2772	13.989177529511	0
7	2772	13.989177529511	0
7	2785	13.989385529511	0
7	2785	13.989385529511	0
7	2810	14.089177537674	0
7	2810	14.089177537674	0
7	2823	14.089385537674	0
7	2823	14.089385537674	0
7	2848	14.18917754589	0
7	2848	14.18917754589	0
7	2861	14.18938554589	0
7	2861	14.18938554589	0
7	2886	14.289177554198	0
7	2886	14.289177554198	0
7	2899	14.289385554198	0
7	2899	14.289385554198	0
7	2924	14.389177562485	0
7	2924	14.389177562485	0
7	2937	14.389385562485	0
7	2937	14.389385562485	0
7	2962	14.489177570839	0
7	2962	14.489177570839	0
7	2975	14.489385570839	0
7	2975	14.489385570839	0
7	3000	14.589177579178	0
7	3000	14.589177579178	0
7	3013	14.589385579178	0
7	3013	14.589385579178	0
7	3038	14.689177587465	0
7	3038	14.689177587465	0
7	3051	14.689385587465	0
7	3051	14.689385587465	0
7	3076	14.789177595766	0
7	3076	14.789177595766	0
7	3089	14.789385595766	0
7	3089	14.789385595766	0
7	3114	14.889177604117	0
7	3114	14.889177604117	0
7	3127	14.889385604117	0
7	3127	14.889385604117	0
7	3152	14.989177612439	0
7	3152	14.989177612439	0
7	3165	14.989385612439	0
7	3165	14.989385612439	0
7	3190	15.089177620772	0
7	3190	15.089177620772	0
7	3203	15.089385620772	0
7	3203	15.089385620772	0
7	3228	15.189177629085	0
7	3228	15.189177629085	0
7	3241	15.189385629085	0
7	3241	15.189385629085	0
7	3266	15.289177637408	0
7	3266	15.289177637408	0
7	3279	15.289385637408	0
7	3279	15.289385637408	0
7	3304	15.389177645733	0
7	3304	15.389177645733	0
7	3317	15.389385645733	0
7	3317	15.389385645733	0
7	3342	15.48917765407	0
7	3342	15.48917765407	0
7	3355	15.48938565407	0
7	3355	15.48938565407	0
7	3380	15.589177662419	0
7	3380	15.589177662419	0
7	3393	15.589385662419	0
7	3393	15.589385662419	0
7	3418	15.689177670747	0
7	3418	15.689177670747	0
7	3431	15.689385670747	0
7	3431	15.689385670747	0
7	3492	16.189177712402	0
7	3492	16.189177712402	0
7	3505	16.189385712402	0
7	3505	16.189385712402	0
7	3527	16.195908	0
7	3527	16.195908	0
7	3557	16.19605212604	0
7	3557	16.19605212604	0
7	3619	16.689177754084	0
7	3619	16.689177754084	0
7	3632	16.689385754084	0
7	3632	16.689385754084	0
7	3693	17.189177795706	0
7	3693	17.189177795706	0
7	3706	17.189385795706	0
7	3706	17.189385795706	0
7	3767	17.689177837413	0
7	3767	17.689177837413	0
7	3780	17.689385837413	0
7	3780	17.689385837413	0
7	3841	18.189177879081	0
7	3841	18.189177879081	0
7	3854	18.189385879081	0
7	3854	18.189385879081	0
7	3915	18.689177920783	0
7	3915	18.689177920783	0
7	3928	18.689385920783	0
7	3928	18.689385920783	0
7	3989	19.189177962461	0
7	3989	19.189177962461	0
7	4002	19.189385962461	0
7	4002	19.189385962461	0
7	4031	19.248067	0
7	4031	19.248067	0
7	4061	19.24821112628	0
7	4061	19.24821112628	0
7	4116	19.689178004201	0
7	4116	19.689178004201	0
7	4129	19.689386004201	0
7	4129	19.689386004201	0
7	4190	20.189178045896	0
7	4190	20.189178045896	0
7	4203	20.189386045896	0
7	4203	20.189386045896	0
7	4264	20.689178087581	0
7	4264	20.689178087581	0
7	4277	20.689386087581	0
7	4277	20.689386087581	0
7	4338	21.18917812928	0
7	4338	21.18917812928	0
7	4351	21.18938612928	0
7	4351	21.18938612928	0
7	4412	21.689178171024	0
7	4412	21.689178171024	0
7	4425	21.689386171024	0
7	4425	21.689386171024	0
7	4486	22.189178212723	0
7	4486	22.189178212723	0
7	4499	22.189386212723	0
7	4499	22.189386212723	0
7	4529	22.279937	0
7	4529	22.279937	0
7	4559	22.280081126447	0
7	4559	22.280081126447	0
7	4613	22.689178254348	0
7	4613	22.689178254348	0
7	4626	22.689386254348	0
7	4626	22.689386254348	0
7	4687	23.189178296082	0
7	4687	23.189178296082	0
7	4700	23.189386296082	0
7	4700	23.189386296082	0
7	4761	23.689178337799	0
7	4761	23.689178337799	0
7	4774	23.689386337799	0
7	4774	23.689386337799	0
7	5017	25.84267	0
7	5017	25.84267	0
7	5044	25.842814126713	0
7	5044	25.842814126713	0
7	5274	28.875104	0
7	5274	28.875104	0
7	5301	28.875248126921	0
7	5301	28.875248126921	0
7	5557	32.246717	0
7	5557	32.246717	0
7	5584	32.246861127156	0
7	5584	32.246861127156	0
7	5854	35.826252	0
7	5854	35.826252	0
7	5881	35.826396127538	0
7	5881	35.826396127538	0
1	2	0.1	180
28	212	2.895427	1
28	213	2.895427	2
28	228	2.895571	1
28	231	2.895571	0
28	765	6.61626	1
28	766	6.61626	2
28	784	6.616404	1
28	787	6.616404	0
28	1311	9.870287	1
28	1312	9.870287	2
28	1330	9.870431	1
28	1333	9.870431	0
28	2416	13.15588	1
28	2417	13.15588	2
28	2435	13.156024	1
28	2438	13.156024	0
28	3527	16.195908	1
28	3528	16.195908	2
28	3546	16.196052	1
28	3549	16.196052	0
28	4031	19.248067	1
28	4032	19.248067	2
28	4050	19.248211	1
28	4053	19.248211	0
28	4529	22.279937	1
28	4530	22.279937	2
28	4548	22.280081	1
28	4551	22.280081	0
28	5017	25.84267	1
28	5018	25.84267	2
28	5033	25.842814	1
28	5036	25.842814	0
28	5274	28.875104	1
28	5275	28.875104	2
28	5290	28.875248	1
28	5293	28.875248	0
28	5557	32.246717	1
28	5558	32.246717	2
28	5573	32.246861	1
28	5576	32.246861	0
28	5854	35.826252	1
28	5855	35.826252	2
28	5870	35.826396	1
28	5873	35.826396	0
2	2	0.1	1
2	212	2.895427	0
2	231	2.895571	2
2	239	2.895571020681	1
2	318	3.689177622736	3
2	331	3.689385622736	1
2	391	4.189177607819	3
2	400	4.189385607819	1
2	465	4.689177586218	3
2	474	4.689385586218	1
2	539	5.189177563119	3
2	548	5.189385563119	1
2	613	5.689177540456	3
2	622	5.689385540456	1
2	687	6.189177518251	3
2	696	6.189385518251	1
2	765	6.61626	0
2	787	6.616404	2
2	795	6.616404075071	1
2	815	6.689177496613	3
2	824	6.689385496613	1
2	889	7.189177475289	3
2	898	7.189385475289	1
2	963	7.689177454402	3
2	972	7.689385454402	1
2	1037	8.189177433913	3
2	1046	8.189385433913	1
2	1111	8.689177412434	3
2	1120	8.689385412434	1
2	1185	9.189177389446	3
2	1194	9.189385389446	1
2	1259	9.689177365197	3
2	1268	9.689385365197	1
2	1311	9.870287	0
2	1333	9.870431	2
2	1344	9.870431125971	1
2	1387	10.18917734038	3
2	1396	10.18938534038	1
2	1461	10.689177321546	3
2	1470	10.689385321546	1
2	1499	10.789177320867	3
2	1508	10.789385320867	1
2	1537	10.889177321928	3
2	1546	10.889385321928	1
2	1575	10.989177324552	3
2	1584	10.989385324552	1
2	1613	11.089177328348	3
2	1622	11.089385328348	1
2	1651	11.189177332939	3
2	1660	11.189385332939	1
2	1689	11.289177338089	3
2	1698	11.289385338089	1
2	1727	11.389177343619	3
2	1736	11.389385343619	1
2	1765	11.489177349383	3
2	1774	11.489385349383	1
2	1803	11.589177355403	3
2	1812	11.589385355403	1
2	1841	11.68917736159	3
2	1850	11.68938536159	1
2	1880	11.789177367935	3
2	1893	11.789385367935	1
2	1918	11.889177374393	3
2	1931	11.889385374393	1
2	1956	11.989177380968	3
2	1969	11.989385380968	1
2	1994	12.08917738767	3
2	2007	12.08938538767	1
2	2032	12.189177394458	3
2	2045	12.189385394458	1
2	2070	12.289177401337	3
2	2083	12.289385401337	1
2	2108	12.38917740831	3
2	2121	12.38938540831	1
2	2146	12.489177415336	3
2	2159	12.489385415336	1
2	2184	12.58917742244	3
2	2197	12.58938542244	1
2	2222	12.689177429656	3
2	2235	12.689385429656	1
2	2260	12.789177436942	3
2	2273	12.789385436942	1
2	2298	12.889177444298	3
2	2311	12.889385444298	1
2	2336	12.989177451695	3
2	2349	12.989385451695	1
2	2374	13.089177459212	3
2	2387	13.089385459212	1
2	2416	13.15588	0
2	2438	13.156024	2
2	2451	13.156024125785	1
2	2468	13.189177466751	3
2	2481	13.189385466751	1
2	2506	13.2891774744	3
2	2519	13.2893854744	1
2	2544	13.389177482106	3
2	2557	13.389385482106	1
2	2582	13.489177489862	3
2	2595	13.489385489862	1
2	2620	13.589177497654	3
2	2633	13.589385497654	1
2	2658	13.689177505515	3
2	2671	13.689385505515	1
2	2696	13.789177513432	3
2	2709	13.789385513432	1
2	2734	13.889177521438	3
2	2747	13.889385521438	1
2	2772	13.989177529511	3
2	2785	13.989385529511	1
2	2810	14.089177537674	3
2	2823	14.089385537674	1
2	2848	14.18917754589	3
2	2861	14.18938554589	1
2	2886	14.289177554198	3
2	2899	14.289385554198	1
2	2924	14.389177562485	3
2	2937	14.389385562485	1
2	2962	14.489177570839	3
2	2975	14.489385570839	1
2	3000	14.589177579178	3
2	3013	14.589385579178	1
2	3038	14.689177587465	3
2	3051	14.689385587465	1
2	3076	14.789177595766	3
2	3089	14.789385595766	1
2	3114	14.889177604117	3
2	3127	14.889385604117	1
2	3152	14.989177612439	3
2	3165	14.989385612439	1
2	3190	15.089177620772	3
2	3203	15.089385620772	1
2	3228	15.189177629085	3
2	3241	15.189385629085	1
2	3266	15.289177637408	3
2	3279	15.289385637408	1
2	3304	15.389177645733	3
2	3317	15.389385645733	1
2	3342	15.48917765407	3
2	3355	15.48938565407	1
2	3380	15.589177662419	3
2	3393	15.589385662419	1
2	3418	15.689177670747	3
2	3431	15.689385670747	1
2	3492	16.189177712402	3
2	3505	16.189385712402	1
2	3527	16.195908	0
2	3549	16.196052	2
2	3557	16.19605212604	1
2	3619	16.689177754084	3
2	3632	16.689385754084	1
2	3693	17.189177795706	3
2	3706	17.189385795706	1
2	3767	17.689177837413	3
2	3780	17.689385837413	1
2	3841	18.189177879081	3
2	3854	18.189385879081	1
2	3915	18.689177920783	3
2	3928	18.689385920783	1
2	3989	19.189177962461	3
2	4002	19.189385962461	1
2	4031	19.248067	0
2	4053	19.248211	2
2	4061	19.24821112628	1
2	4116	19.689178004201	3
2	4129	19.689386004201	1
2	4190	20.189178045896	3
2	4203	20.189386045896	1
2	4264	20.689178087581	3
2	4277	20.689386087581	1
2	4338	21.18917812928	3
2	4351	21.18938612928	1
2	4412	21.689178171024	3
2	4425	21.689386171024	1
2	4486	22.189178212723	3
2	4499	22.189386212723	1
2	4529	22.279937	0
2	4551	22.280081	2
2	4559	22.280081126447	1
2	4613	22.689178254348	3
2	4626	22.689386254348	1
2	4687	23.189178296082	3
2	4700	23.189386296082	1
2	4761	23.689178337799	3
2	4774	23.689386337799	1
2	5017	25.84267	0
2	5036	25.842814	2
2	5044	25.842814126713	1
2	5274	28.875104	0
2	5293	28.875248	2
2	5301	28.875248126921	1
2	5557	32.246717	0
2	5576	32.246861	2
2	5584	32.246861127156	1
2	5854	35.826252	0
2	5873	35.826396	2
2	5881	35.826396127538	1
0	2	0.1	0
0	2	0.1	2
0	212	2.895427	3
0	231	2.895571	2
0	765	6.61626	3
0	787	6.616404	2
0	1311	9.870287	3
0	1333	9.870431	2
0	2416	13.15588	3
0	2438	13.156024	2
0	3527	16.195908	3
0	3549	16.196052	2
0	4031	19.248067	3
0	4053	19.248211	2
0	4529	22.279937	3
0	4551	22.280081	2
0	5017	25.84267	3
0	5036	25.842814	2
0	5274	28.875104	3
0	5293	28.875248	2
0	5557	32.246717	3
0	5576	32.246861	2
0	5854	35.826252	3
0	5873	35.826396	2

